  115
CERIA BULK                              
 O  -1.827229327562E+00  1.016192704832E+00  3.902310618415E+00
 O  -3.822565120598E+00  4.296126301898E+00  4.006381879403E+00
 O  -3.976412233100E-02 -2.221254849994E+00  4.153587408827E+00
 O   1.882181250296E+00  1.174004723934E+00  4.184731709836E+00
 O   8.001604443800E-02  4.410496814721E+00  4.218251910053E+00
 O   3.726201082589E+00 -2.181694196789E+00  4.028259651383E+00
 O  -5.750230664621E+00  1.100546828057E+00  4.163700481404E+00
 O  -3.750212500811E+00 -2.226849113779E+00  4.033784236859E+00
 CE  1.880447883947E+00 -1.083308397020E+00  3.328528991932E+00
 CE -9.420720106000E-03  2.129185766459E+00  3.290600850229E+00
 CE  3.690765329086E+00 -4.300071526010E+00  3.286720632902E+00
 CE  5.604083862679E+00 -1.085655011728E+00  3.295790724642E+00
 CE  3.731590229721E+00  2.127949214913E+00  3.206974177258E+00
 CE  7.507196851299E+00 -4.244666420889E+00  3.176050236070E+00
 CE -1.851774014159E+00 -1.095353050544E+00  3.254455025360E+00
 CE -3.765815819003E+00  2.144852310370E+00  3.322398272476E+00
 CE  3.870728791800E-02 -4.330628649547E+00  3.213474485571E+00
 O   7.813149213700E-02 -3.901086878500E-02  2.491619248429E+00
 O  -1.816087199120E+00  3.291886060519E+00  2.544083343703E+00
 O   1.845841595931E+00 -3.222926016796E+00  2.473386366924E+00
 O   3.720888968547E+00  5.430896426000E-03  2.480078650196E+00
 O   1.894442527664E+00  3.310305829996E+00  2.485120922865E+00
 O   5.611823647614E+00 -3.273059422984E+00  2.463058373548E+00
 O  -3.826846186591E+00 -4.541813592000E-03  2.523464198995E+00
 O  -5.718982705940E+00  3.239044969170E+00  2.471013929988E+00
 O  -1.854903564678E+00 -3.314631401991E+00  2.447478545692E+00
 O   1.886350529402E+00 -1.088194736100E+00  8.838039595890E-01
 O   7.284690100000E-03  2.152034206290E+00  9.434772211670E-01
 O   3.721668374442E+00 -4.319367148666E+00  9.059358905620E-01
 O   5.614017251075E+00 -1.081508115928E+00  9.234499068930E-01
 O   3.730848070156E+00  2.153607974267E+00  8.941057316300E-01
 O   7.499229681622E+00 -4.293350354613E+00  8.857043227690E-01
 O  -1.883471061867E+00 -1.081797296483E+00  9.451666473350E-01
 O  -3.743275988437E+00  2.176120408474E+00  9.658982124360E-01
 O   1.415060579300E-02 -4.336603848311E+00  8.875128539090E-01
 CE  7.854495577000E-03 -3.037468900000E-03  4.834169756100E-02
 CE -1.875322125819E+00  3.244036891468E+00  6.284580086900E-02
 CE  1.874105804469E+00 -3.241664148644E+00  2.897739011500E-02
 CE  3.743554219966E+00 -5.363026874000E-03  3.659714092300E-02
 CE  1.873315493141E+00  3.247779118424E+00  3.416554994300E-02
 CE  5.611812121687E+00 -3.232567493023E+00  3.531602336000E-02
 CE -3.761968311219E+00 -2.606585479000E-03  6.468913800400E-02
 CE -5.624744638590E+00  3.232927712838E+00  3.924691539800E-02
 CE -1.880020824497E+00 -3.247573843268E+00  1.623177227500E-02
 O  -1.883492431330E+00  1.079873595598E+00 -7.032737383210E-01
 O  -3.745605540552E+00  4.305619661139E+00 -7.266465440610E-01
 O  -1.728531033200E-02 -2.159946237485E+00 -7.255087849870E-01
 O   1.864781737546E+00  1.088973151929E+00 -7.278432206780E-01
 O  -1.844373459997E-04  4.322253232703E+00 -7.118207020950E-01
 O   3.754466156082E+00 -2.161207617867E+00 -7.372225578070E-01
 O  -5.620560751726E+00  1.072715910481E+00 -7.088401952560E-01
 O  -7.503847079956E+00  4.314432813505E+00 -7.186101574570E-01
 O  -3.757993172042E+00 -2.155905859240E+00 -7.186805988700E-01
 O   0.000000000000E+00  0.000000000000E+00 -2.343480358560E+00
 O  -1.871370936694E+00  3.243890396818E+00 -2.343480358560E+00
 O   1.871370936700E+00 -3.243890396813E+00 -2.343480358560E+00
 O   3.754199475666E+00  6.615401142000E-03 -2.343480358560E+00
 O   1.882828538967E+00  3.250505797965E+00 -2.343480358560E+00
 O   5.625570412370E+00 -3.237274995668E+00 -2.343480358560E+00
 O  -3.754199475666E+00 -6.615401152000E-03 -2.343480358560E+00
 O  -5.625570412370E+00  3.237274995668E+00 -2.343480358560E+00
 O  -1.882828538973E+00 -3.250505797961E+00 -2.343480358560E+00
 CE -1.875190137453E+00  1.079091665221E+00 -3.124640478080E+00
 CE -3.746561074142E+00  4.322982062044E+00 -3.124640478080E+00
 CE -3.819200756000E-03 -2.164798731592E+00 -3.124640478080E+00
 CE  1.879009338212E+00  1.085707066371E+00 -3.124640478080E+00
 CE  7.638401517000E-03  4.329597463188E+00 -3.124640478080E+00
 CE  3.750380274910E+00 -2.158183330445E+00 -3.124640478080E+00
 CE -5.629389613160E+00  1.072476264061E+00 -3.124640478080E+00
 CE -7.500760549814E+00  4.316366660900E+00 -3.124640478080E+00
 CE -3.758018676425E+00 -2.171414132744E+00 -3.124640478080E+00
 O   1.875190137453E+00 -1.079091665221E+00 -3.905800597599E+00
 O   3.819200756000E-03  2.164798731592E+00 -3.905800597599E+00
 O   3.746561074142E+00 -4.322982062044E+00 -3.905800597599E+00
 O   5.629389613160E+00 -1.072476264061E+00 -3.905800597599E+00
 O   3.758018676428E+00  2.171414132744E+00 -3.905800597599E+00
 O   7.500760549814E+00 -4.316366660900E+00 -3.905800597599E+00
 O  -1.879009338212E+00 -1.085707066371E+00 -3.905800597599E+00
 O  -3.750380274912E+00  2.158183330445E+00 -3.905800597599E+00
 O  -7.638401519000E-03 -4.329597463189E+00 -3.905800597599E+00
 O   8.396376388310E-01 -3.390724996110E+00  6.361633425772E+00
 H   5.938964542103E+00  6.876771696557E+00  5.700796844535E+00
 H   3.481138928040E-01 -3.499062354117E+00  7.193101385120E+00
 H  -2.199892444977E+00 -5.256025322620E+00  5.283800883898E+00
 O   1.800511490815E+00  2.032587383317E+00  6.776814008893E+00
 H   1.968238724394E+00  1.602651758207E+00  5.893241463319E+00
 H   2.186198872790E+00  1.507415361520E+00  7.496532817900E+00
 O   5.444234290666E+00 -1.544926466054E+00  6.034485252366E+00
 H   5.342326345171E+00 -6.921957149210E-01  6.535009299145E+00
 H   4.549182232912E+00 -1.922601260250E+00  5.905658562455E+00
 O  -5.821683128317E+00  1.020065475594E+00  6.805624825854E+00
 H  -5.969333253091E+00  1.204285744041E+00  5.831326473011E+00
 H   4.852188715863E+00  1.559831880019E+00  7.373603568182E+00
 H   1.519327723188E+00  1.138782637587E+01  6.533798570099E+00
 O   2.300698044274E+00  1.138682353251E+01  5.930100305517E+00
 H   2.601518020713E+00  1.043861025244E+01  5.933824738575E+00
 H  -2.491354713230E+00 -1.357640107378E+00  6.895652730657E+00
 O  -2.585832156817E+00 -1.007645891321E+00  5.991306691504E+00
 H  -3.253104206057E+00 -1.602114792124E+00  5.551644689976E+00
 O  -7.649154599090E-01  2.607995287128E+00  5.987261483644E+00
 H  -1.618594297604E+00  2.155001902305E+00  6.180635069609E+00
 H  -7.001269775400E-02  2.330470388985E+00  6.623276309457E+00
 H  -1.678370621320E+00  4.417134120950E+00  6.199109291695E+00
 O  -1.993336707680E+00  5.296375393130E+00  5.897084216777E+00
 H  -2.932802447070E+00  5.377549032337E+00  6.163691707818E+00
 O   3.796290358432E+00  4.334413916205E+00  4.375875422836E+00
 O   1.835745268445E+00  4.904635796202E+00  6.204626164707E+00
 H   1.839761699175E+00  4.288713794430E+00  6.968610148864E+00
 H   7.102511388078E+00  9.390303017376E+00  6.370808741411E+00
 O   7.717023723420E+00  8.749928669130E+00  5.976126244289E+00
 H   7.459635462472E+00  7.870224744095E+00  6.350725114180E+00
 H   1.154887742747E+01  4.492177929090E+00  5.177818061143E+00
 H   1.215077535961E+01  7.100139281324E+00  7.076872846548E+00
 O   1.295378426552E+01  6.730924269442E+00  7.527992827071E+00
 H   1.270195750168E+01  6.480458479543E+00  8.440947103669E+00
  115
CERIA BULK                              
 O  -1.827229327562E+00  1.016192704832E+00  3.902310618415E+00
 O  -3.822565120598E+00  4.296126301898E+00  4.006381879403E+00
 O  -3.976412233140E-02 -2.221254849994E+00  4.153587408827E+00
 O   1.882181250296E+00  1.174004723934E+00  4.184731709836E+00
 O   8.001604443774E-02  4.410496814721E+00  4.218251910053E+00
 O   3.726201082589E+00 -2.181694196789E+00  4.028259651383E+00
 O  -5.750230664621E+00  1.100546828057E+00  4.163700481404E+00
 O  -3.750212500811E+00 -2.226849113779E+00  4.033784236859E+00
 CE  1.880447883947E+00 -1.083308397020E+00  3.328528991932E+00
 CE -9.420720106306E-03  2.129185766459E+00  3.290600850229E+00
 CE  3.690765329086E+00 -4.300071526010E+00  3.286720632902E+00
 CE  5.604083862679E+00 -1.085655011728E+00  3.295790724642E+00
 CE  3.731590229721E+00  2.127949214913E+00  3.206974177258E+00
 CE  7.507196851299E+00 -4.244666420889E+00  3.176050236070E+00
 CE -1.851774014159E+00 -1.095353050544E+00  3.254455025360E+00
 CE -3.765815819003E+00  2.144852310370E+00  3.322398272476E+00
 CE  3.870728791767E-02 -4.330628649547E+00  3.213474485571E+00
 O   7.813149213669E-02 -3.901086878500E-02  2.491619248429E+00
 O  -1.816087199120E+00  3.291886060519E+00  2.544083343703E+00
 O   1.845841595931E+00 -3.222926016796E+00  2.473386366924E+00
 O   3.720888968547E+00  5.430896426312E-03  2.480078650196E+00
 O   1.894442527664E+00  3.310305829996E+00  2.485120922865E+00
 O   5.611823647614E+00 -3.273059422984E+00  2.463058373548E+00
 O  -3.826846186591E+00 -4.541813591664E-03  2.523464198995E+00
 O  -5.718982705940E+00  3.239044969170E+00  2.471013929988E+00
 O  -1.854903564678E+00 -3.314631401991E+00  2.447478545692E+00
 O   1.886350529402E+00 -1.088194736100E+00  8.838039595893E-01
 O   7.284690099856E-03  2.152034206290E+00  9.434772211668E-01
 O   3.721668374442E+00 -4.319367148666E+00  9.059358905616E-01
 O   5.614017251074E+00 -1.081508115928E+00  9.234499068929E-01
 O   3.730848070156E+00  2.153607974267E+00  8.941057316295E-01
 O   7.499229681622E+00 -4.293350354613E+00  8.857043227691E-01
 O  -1.883471061867E+00 -1.081797296483E+00  9.451666473346E-01
 O  -3.743275988437E+00  2.176120408474E+00  9.658982124361E-01
 O   1.415060579253E-02 -4.336603848311E+00  8.875128539090E-01
 CE  7.854495576524E-03 -3.037468899883E-03  4.834169756074E-02
 CE -1.875322125819E+00  3.244036891468E+00  6.284580086861E-02
 CE  1.874105804469E+00 -3.241664148644E+00  2.897739011472E-02
 CE  3.743554219966E+00 -5.363026873661E-03  3.659714092287E-02
 CE  1.873315493141E+00  3.247779118424E+00  3.416554994321E-02
 CE  5.611812121687E+00 -3.232567493022E+00  3.531602335989E-02
 CE -3.761968311219E+00 -2.606585478750E-03  6.468913800417E-02
 CE -5.624744638589E+00  3.232927712838E+00  3.924691539809E-02
 CE -1.880020824497E+00 -3.247573843268E+00  1.623177227518E-02
 O  -1.883492431330E+00  1.079873595598E+00 -7.032737383215E-01
 O  -3.745605540552E+00  4.305619661139E+00 -7.266465440607E-01
 O  -1.728531033235E-02 -2.159946237485E+00 -7.255087849869E-01
 O   1.864781737546E+00  1.088973151929E+00 -7.278432206778E-01
 O  -1.844373459670E-04  4.322253232703E+00 -7.118207020949E-01
 O   3.754466156082E+00 -2.161207617867E+00 -7.372225578074E-01
 O  -5.620560751727E+00  1.072715910481E+00 -7.088401952558E-01
 O  -7.503847079956E+00  4.314432813505E+00 -7.186101574573E-01
 O  -3.757993172042E+00 -2.155905859240E+00 -7.186805988704E-01
 O   0.000000000000E+00  0.000000000000E+00 -2.343480358560E+00
 O  -1.871370936694E+00  3.243890396818E+00 -2.343480358560E+00
 O   1.871370936700E+00 -3.243890396813E+00 -2.343480358560E+00
 O   3.754199475666E+00  6.615401142309E-03 -2.343480358560E+00
 O   1.882828538967E+00  3.250505797965E+00 -2.343480358560E+00
 O   5.625570412370E+00 -3.237274995668E+00 -2.343480358560E+00
 O  -3.754199475666E+00 -6.615401152312E-03 -2.343480358560E+00
 O  -5.625570412370E+00  3.237274995668E+00 -2.343480358560E+00
 O  -1.882828538973E+00 -3.250505797961E+00 -2.343480358560E+00
 CE -1.875190137453E+00  1.079091665221E+00 -3.124640478080E+00
 CE -3.746561074142E+00  4.322982062044E+00 -3.124640478080E+00
 CE -3.819200756143E-03 -2.164798731592E+00 -3.124640478080E+00
 CE  1.879009338212E+00  1.085707066371E+00 -3.124640478080E+00
 CE  7.638401517288E-03  4.329597463188E+00 -3.124640478080E+00
 CE  3.750380274910E+00 -2.158183330446E+00 -3.124640478080E+00
 CE -5.629389613160E+00  1.072476264061E+00 -3.124640478080E+00
 CE -7.500760549814E+00  4.316366660900E+00 -3.124640478080E+00
 CE -3.758018676425E+00 -2.171414132744E+00 -3.124640478080E+00
 O   1.875190137453E+00 -1.079091665221E+00 -3.905800597599E+00
 O   3.819200756143E-03  2.164798731592E+00 -3.905800597599E+00
 O   3.746561074142E+00 -4.322982062044E+00 -3.905800597599E+00
 O   5.629389613160E+00 -1.072476264061E+00 -3.905800597599E+00
 O   3.758018676428E+00  2.171414132744E+00 -3.905800597599E+00
 O   7.500760549814E+00 -4.316366660900E+00 -3.905800597599E+00
 O  -1.879009338212E+00 -1.085707066371E+00 -3.905800597599E+00
 O  -3.750380274912E+00  2.158183330446E+00 -3.905800597599E+00
 O  -7.638401519288E-03 -4.329597463189E+00 -3.905800597599E+00
 O   8.396376388313E-01 -3.390724996110E+00  6.361633425772E+00
 H   5.938964542104E+00  6.876771696557E+00  5.700796844535E+00
 H   3.481138928036E-01 -3.499062354117E+00  7.193101385120E+00
 H  -2.199892444977E+00 -5.256025322620E+00  5.283800883898E+00
 O   1.800511490815E+00  2.032587383317E+00  6.776814008893E+00
 H   1.968238724394E+00  1.602651758207E+00  5.893241463319E+00
 H   2.186198872790E+00  1.507415361520E+00  7.496532817901E+00
 O   5.444234290666E+00 -1.544926466054E+00  6.034485252366E+00
 H   5.342326345171E+00 -6.921957149214E-01  6.535009299145E+00
 H   4.549182232912E+00 -1.922601260250E+00  5.905658562454E+00
 O  -5.821683128317E+00  1.020065475594E+00  6.805624825854E+00
 H  -5.969333253091E+00  1.204285744041E+00  5.831326473012E+00
 H   4.852188715863E+00  1.559831880019E+00  7.373603568182E+00
 H   1.519327723188E+00  1.138782637587E+01  6.533798570099E+00
 O   2.300698044274E+00  1.138682353251E+01  5.930100305517E+00
 H   2.601518020713E+00  1.043861025244E+01  5.933824738575E+00
 H  -2.491354713230E+00 -1.357640107378E+00  6.895652730656E+00
 O  -2.585832156817E+00 -1.007645891321E+00  5.991306691504E+00
 H  -3.253104206057E+00 -1.602114792124E+00  5.551644689976E+00
 O  -7.649154599088E-01  2.607995287128E+00  5.987261483644E+00
 H  -1.618594297604E+00  2.155001902305E+00  6.180635069609E+00
 H  -7.001269775359E-02  2.330470388985E+00  6.623276309457E+00
 H  -1.678370621320E+00  4.417134120950E+00  6.199109291694E+00
 O  -1.993336707680E+00  5.296375393130E+00  5.897084216777E+00
 H  -2.932802447070E+00  5.377549032337E+00  6.163691707818E+00
 O   3.796290358432E+00  4.334413916205E+00  4.375875422836E+00
 O   1.835745268445E+00  4.904635796202E+00  6.204626164707E+00
 H   1.839761699175E+00  4.288713794430E+00  6.968610148864E+00
 H   7.102511388078E+00  9.390303017375E+00  6.370808741411E+00
 O   7.717023723420E+00  8.749928669130E+00  5.976126244289E+00
 H   7.459635462472E+00  7.870224744095E+00  6.350725114181E+00
 H   1.154887742747E+01  4.492177929090E+00  5.177818061143E+00
 H   1.215077535961E+01  7.100139281325E+00  7.076872846548E+00
 O   1.295378426552E+01  6.730924269442E+00  7.527992827071E+00
 H   1.270195750168E+01  6.480458479544E+00  8.440947103669E+00
  115
CERIA BULK                               E -1.7736740000921E+04 DE 9.4E-08(  6)
 O  -1.827229759339E+00  1.016198725728E+00  3.902312846941E+00
 O  -3.822577605454E+00  4.296128772892E+00  4.006391992449E+00
 O  -3.975950108617E-02 -2.221262991582E+00  4.153580214574E+00
 O   1.882179454181E+00  1.174009658365E+00  4.184713380328E+00
 O   8.002129579689E-02  4.410491707163E+00  4.218256406273E+00
 O   3.726191842933E+00 -2.181684661386E+00  4.028276836765E+00
 O  -5.750221323464E+00  1.100542326698E+00  4.163696224903E+00
 O  -3.750205623916E+00 -2.226843066611E+00  4.033770784469E+00
 CE  1.880439831456E+00 -1.083298950741E+00  3.328522605534E+00
 CE -9.417449878598E-03  2.129182313877E+00  3.290603299671E+00
 CE  3.690761138856E+00 -4.300070600585E+00  3.286720267898E+00
 CE  5.604088585327E+00 -1.085666106741E+00  3.295800245373E+00
 CE  3.731592420689E+00  2.127949004166E+00  3.206972228002E+00
 CE  7.507178594605E+00 -4.244666571418E+00  3.176047235620E+00
 CE -1.851766833652E+00 -1.095339299590E+00  3.254450477121E+00
 CE -3.765799888484E+00  2.144867241511E+00  3.322374173369E+00
 CE  3.871253569761E-02 -4.330617334164E+00  3.213452594828E+00
 O   7.812946348790E-02 -3.902416207165E-02  2.491617961257E+00
 O  -1.816089501727E+00  3.291891532605E+00  2.544082986931E+00
 O   1.845839004988E+00 -3.222924012011E+00  2.473384266367E+00
 O   3.720885887093E+00  5.428739113575E-03  2.480082157419E+00
 O   1.894442873511E+00  3.310311004864E+00  2.485114091777E+00
 O   5.611819647312E+00 -3.273052848814E+00  2.463053296774E+00
 O  -3.826842989162E+00 -4.549048708556E-03  2.523469208040E+00
 O  -5.718985528148E+00  3.239046528798E+00  2.471007013752E+00
 O  -1.854897440839E+00 -3.314629918204E+00  2.447480280539E+00
 O   1.886353722577E+00 -1.088192302504E+00  8.838028754588E-01
 O   7.284300661727E-03  2.152031353036E+00  9.434789135220E-01
 O   3.721672085213E+00 -4.319359972514E+00  9.059324074507E-01
 O   5.614015246851E+00 -1.081504854049E+00  9.234491437238E-01
 O   3.730843057403E+00  2.153605109444E+00  8.941103247996E-01
 O   7.499228521488E+00 -4.293346962285E+00  8.856984717675E-01
 O  -1.883470655461E+00 -1.081801660644E+00  9.451657083697E-01
 O  -3.743281331550E+00  2.176112540003E+00  9.658884902049E-01
 O   1.414620021130E-02 -4.336599831014E+00  8.875092014617E-01
 CE  7.844696414538E-03 -3.022931401124E-03  4.833749244118E-02
 CE -1.875323774276E+00  3.244017527371E+00  6.286038768686E-02
 CE  1.874085062305E+00 -3.241667624300E+00  2.897616029471E-02
 CE  3.743552690826E+00 -5.365249164655E-03  3.658977384799E-02
 CE  1.873313456634E+00  3.247778970657E+00  3.415626707004E-02
 CE  5.611806955077E+00 -3.232564072221E+00  3.531200659302E-02
 CE -3.761968556388E+00 -2.607667996299E-03  6.468132965584E-02
 CE -5.624744384193E+00  3.232928797614E+00  3.923979141204E-02
 CE -1.880002400420E+00 -3.247569693667E+00  1.622792524451E-02
 O  -1.883486162086E+00  1.079872092261E+00 -7.032786474882E-01
 O  -3.745599969186E+00  4.305620911368E+00 -7.266434282195E-01
 O  -1.728203715497E-02 -2.159941720388E+00 -7.255036921681E-01
 O   1.864781759470E+00  1.088971842371E+00 -7.278448957082E-01
 O  -1.863785194188E-04  4.322249942563E+00 -7.118218497654E-01
 O   3.754459154051E+00 -2.161210239162E+00 -7.372268025683E-01
 O  -5.620559220658E+00  1.072721090071E+00 -7.088400372285E-01
 O  -7.503847579860E+00  4.314427000028E+00 -7.186106321341E-01
 O  -3.757988647133E+00 -2.155908105244E+00 -7.186773572607E-01
 O   0.000000000000E+00  0.000000000000E+00 -2.343480358560E+00
 O  -1.871369924614E+00  3.243888835061E+00 -2.343480358560E+00
 O   1.871369924620E+00 -3.243888835056E+00 -2.343480358560E+00
 O   3.754197491646E+00  6.615424688523E-03 -2.343480358560E+00
 O   1.882827567027E+00  3.250504259755E+00 -2.343480358560E+00
 O   5.625567416270E+00 -3.237273410365E+00 -2.343480358560E+00
 O  -3.754197491646E+00 -6.615424698526E-03 -2.343480358560E+00
 O  -5.625567416270E+00  3.237273410365E+00 -2.343480358560E+00
 O  -1.882827567033E+00 -3.250504259751E+00 -2.343480358560E+00
 CE -1.875189138753E+00  1.079091136787E+00 -3.124640478080E+00
 CE -3.746559063361E+00  4.322979971853E+00 -3.124640478080E+00
 CE -3.819214136169E-03 -2.164797698269E+00 -3.124640478080E+00
 CE  1.879008352892E+00  1.085706561482E+00 -3.124640478080E+00
 CE  7.638428277339E-03  4.329595396542E+00 -3.124640478080E+00
 CE  3.750378277510E+00 -2.158182273577E+00 -3.124640478080E+00
 CE -5.629386630440E+00  1.072475712080E+00 -3.124640478080E+00
 CE -7.500756555013E+00  4.316364547162E+00 -3.124640478080E+00
 CE -3.758016705785E+00 -2.171413122968E+00 -3.124640478080E+00
 O   1.875189138753E+00 -1.079091136787E+00 -3.905800597599E+00
 O   3.819214136169E-03  2.164797698269E+00 -3.905800597599E+00
 O   3.746559063361E+00 -4.322979971853E+00 -3.905800597599E+00
 O   5.629386630440E+00 -1.072475712080E+00 -3.905800597599E+00
 O   3.758016705788E+00  2.171413122968E+00 -3.905800597599E+00
 O   7.500756555013E+00 -4.316364547162E+00 -3.905800597599E+00
 O  -1.879008352892E+00 -1.085706561482E+00 -3.905800597599E+00
 O  -3.750378277512E+00  2.158182273577E+00 -3.905800597599E+00
 O  -7.638428279340E-03 -4.329595396543E+00 -3.905800597599E+00
 O   8.396471598360E-01 -3.390695726644E+00  6.361629171606E+00
 H   5.938969967968E+00  6.876758336798E+00  5.700801562820E+00
 H   3.481220700551E-01 -3.499056309969E+00  7.193109411371E+00
 H  -2.199879830068E+00 -5.256025050685E+00  5.283795704334E+00
 O   1.800512565461E+00  2.032592921461E+00  6.776808880004E+00
 H   1.968241771604E+00  1.602669040908E+00  5.893251609857E+00
 H   2.186193838202E+00  1.507400067893E+00  7.496539361808E+00
 O   5.444214368076E+00 -1.544916524875E+00  6.034468285868E+00
 H   5.342325785187E+00 -6.921914051693E-01  6.535014880784E+00
 H   4.549183463272E+00 -1.922607873643E+00  5.905666171181E+00
 O  -5.821680810422E+00  1.020061032372E+00  6.805621223127E+00
 H  -5.969329029973E+00  1.204278768933E+00  5.831319939738E+00
 H   4.852184175111E+00  1.559829178357E+00  7.373608393697E+00
 H   1.519325336826E+00  1.138782190951E+01  6.533804131558E+00
 O   2.300704642616E+00  1.138681715220E+01  5.930092520447E+00
 H   2.601513359262E+00  1.043860675414E+01  5.933826658761E+00
 H  -2.491354665727E+00 -1.357640246299E+00  6.895650443611E+00
 O  -2.585828996477E+00 -1.007646214303E+00  5.991309142393E+00
 H  -3.253111755907E+00 -1.602116044949E+00  5.551664207429E+00
 O  -7.649052382533E-01  2.607984365592E+00  5.987248606957E+00
 H  -1.618590425946E+00  2.155005788740E+00  6.180640604692E+00
 H  -7.001261939511E-02  2.330469218211E+00  6.623278961009E+00
 H  -1.678381227813E+00  4.417137751130E+00  6.199116516702E+00
 O  -1.993345941013E+00  5.296366844878E+00  5.897097008289E+00
 H  -2.932783084848E+00  5.377554407042E+00  6.163684818911E+00
 O   3.796297556807E+00  4.334405009109E+00  4.375872920225E+00
 O   1.835737367124E+00  4.904665579729E+00  6.204640866340E+00
 H   1.839754686060E+00  4.288690009667E+00  6.968604660096E+00
 H   7.102521229661E+00  9.390289498227E+00  6.370804917988E+00
 O   7.717019607417E+00  8.749906148603E+00  5.976133202181E+00
 H   7.459617621077E+00  7.870204602915E+00  6.350734687905E+00
 H   1.154885760157E+01  4.492167565097E+00  5.177823363629E+00
 H   1.215076259106E+01  7.100146753356E+00  7.076876348158E+00
 O   1.295378401744E+01  6.730926130632E+00  7.527993794481E+00
 H   1.270195527607E+01  6.480455767872E+00  8.440940024082E+00
  115
CERIA BULK                               E -1.7736740001544E+04 DE 5.6E-08(  3)
 O  -1.827229759339E+00  1.016198725728E+00  3.902312846941E+00
 O  -3.822577605454E+00  4.296128772892E+00  4.006391992449E+00
 O  -3.975950108617E-02 -2.221262991582E+00  4.153580214574E+00
 O   1.882179454181E+00  1.174009658365E+00  4.184713380328E+00
 O   8.002129579689E-02  4.410491707163E+00  4.218256406273E+00
 O   3.726191842933E+00 -2.181684661386E+00  4.028276836765E+00
 O  -5.750221323464E+00  1.100542326698E+00  4.163696224903E+00
 O  -3.750205623916E+00 -2.226843066611E+00  4.033770784469E+00
 CE  1.880439831456E+00 -1.083298950741E+00  3.328522605534E+00
 CE -9.417449878598E-03  2.129182313877E+00  3.290603299671E+00
 CE  3.690761138856E+00 -4.300070600585E+00  3.286720267898E+00
 CE  5.604088585327E+00 -1.085666106741E+00  3.295800245373E+00
 CE  3.731592420689E+00  2.127949004166E+00  3.206972228002E+00
 CE  7.507178594605E+00 -4.244666571418E+00  3.176047235620E+00
 CE -1.851766833652E+00 -1.095339299590E+00  3.254450477121E+00
 CE -3.765799888484E+00  2.144867241511E+00  3.322374173369E+00
 CE  3.871253569761E-02 -4.330617334164E+00  3.213452594828E+00
 O   7.812946348790E-02 -3.902416207165E-02  2.491617961257E+00
 O  -1.816089501727E+00  3.291891532605E+00  2.544082986931E+00
 O   1.845839004988E+00 -3.222924012011E+00  2.473384266367E+00
 O   3.720885887093E+00  5.428739113575E-03  2.480082157419E+00
 O   1.894442873511E+00  3.310311004864E+00  2.485114091777E+00
 O   5.611819647312E+00 -3.273052848814E+00  2.463053296774E+00
 O  -3.826842989162E+00 -4.549048708556E-03  2.523469208040E+00
 O  -5.718985528148E+00  3.239046528798E+00  2.471007013752E+00
 O  -1.854897440839E+00 -3.314629918204E+00  2.447480280539E+00
 O   1.886353722577E+00 -1.088192302504E+00  8.838028754588E-01
 O   7.284300661727E-03  2.152031353036E+00  9.434789135220E-01
 O   3.721672085213E+00 -4.319359972514E+00  9.059324074507E-01
 O   5.614015246851E+00 -1.081504854049E+00  9.234491437238E-01
 O   3.730843057403E+00  2.153605109444E+00  8.941103247996E-01
 O   7.499228521488E+00 -4.293346962285E+00  8.856984717675E-01
 O  -1.883470655461E+00 -1.081801660644E+00  9.451657083697E-01
 O  -3.743281331550E+00  2.176112540003E+00  9.658884902049E-01
 O   1.414620021130E-02 -4.336599831014E+00  8.875092014617E-01
 CE  7.844696414538E-03 -3.022931401124E-03  4.833749244118E-02
 CE -1.875323774276E+00  3.244017527371E+00  6.286038768686E-02
 CE  1.874085062305E+00 -3.241667624300E+00  2.897616029471E-02
 CE  3.743552690826E+00 -5.365249164655E-03  3.658977384799E-02
 CE  1.873313456634E+00  3.247778970657E+00  3.415626707004E-02
 CE  5.611806955077E+00 -3.232564072221E+00  3.531200659302E-02
 CE -3.761968556388E+00 -2.607667996299E-03  6.468132965584E-02
 CE -5.624744384193E+00  3.232928797614E+00  3.923979141204E-02
 CE -1.880002400420E+00 -3.247569693667E+00  1.622792524451E-02
 O  -1.883486162086E+00  1.079872092261E+00 -7.032786474882E-01
 O  -3.745599969186E+00  4.305620911368E+00 -7.266434282195E-01
 O  -1.728203715497E-02 -2.159941720388E+00 -7.255036921681E-01
 O   1.864781759470E+00  1.088971842371E+00 -7.278448957082E-01
 O  -1.863785194188E-04  4.322249942563E+00 -7.118218497654E-01
 O   3.754459154051E+00 -2.161210239162E+00 -7.372268025683E-01
 O  -5.620559220658E+00  1.072721090071E+00 -7.088400372285E-01
 O  -7.503847579860E+00  4.314427000028E+00 -7.186106321341E-01
 O  -3.757988647133E+00 -2.155908105244E+00 -7.186773572607E-01
 O   0.000000000000E+00  0.000000000000E+00 -2.343480358560E+00
 O  -1.871369924614E+00  3.243888835061E+00 -2.343480358560E+00
 O   1.871369924620E+00 -3.243888835056E+00 -2.343480358560E+00
 O   3.754197491646E+00  6.615424688523E-03 -2.343480358560E+00
 O   1.882827567027E+00  3.250504259755E+00 -2.343480358560E+00
 O   5.625567416270E+00 -3.237273410365E+00 -2.343480358560E+00
 O  -3.754197491646E+00 -6.615424698526E-03 -2.343480358560E+00
 O  -5.625567416270E+00  3.237273410365E+00 -2.343480358560E+00
 O  -1.882827567033E+00 -3.250504259751E+00 -2.343480358560E+00
 CE -1.875189138753E+00  1.079091136787E+00 -3.124640478080E+00
 CE -3.746559063361E+00  4.322979971853E+00 -3.124640478080E+00
 CE -3.819214136169E-03 -2.164797698269E+00 -3.124640478080E+00
 CE  1.879008352892E+00  1.085706561482E+00 -3.124640478080E+00
 CE  7.638428277339E-03  4.329595396542E+00 -3.124640478080E+00
 CE  3.750378277510E+00 -2.158182273577E+00 -3.124640478080E+00
 CE -5.629386630440E+00  1.072475712080E+00 -3.124640478080E+00
 CE -7.500756555013E+00  4.316364547162E+00 -3.124640478080E+00
 CE -3.758016705785E+00 -2.171413122968E+00 -3.124640478080E+00
 O   1.875189138753E+00 -1.079091136787E+00 -3.905800597599E+00
 O   3.819214136169E-03  2.164797698269E+00 -3.905800597599E+00
 O   3.746559063361E+00 -4.322979971853E+00 -3.905800597599E+00
 O   5.629386630440E+00 -1.072475712080E+00 -3.905800597599E+00
 O   3.758016705788E+00  2.171413122968E+00 -3.905800597599E+00
 O   7.500756555013E+00 -4.316364547162E+00 -3.905800597599E+00
 O  -1.879008352892E+00 -1.085706561482E+00 -3.905800597599E+00
 O  -3.750378277512E+00  2.158182273577E+00 -3.905800597599E+00
 O  -7.638428279340E-03 -4.329595396543E+00 -3.905800597599E+00
 O   8.396471598360E-01 -3.390695726644E+00  6.361629171606E+00
 H   5.938969967968E+00  6.876758336798E+00  5.700801562820E+00
 H   3.481220700551E-01 -3.499056309969E+00  7.193109411371E+00
 H  -2.199879830068E+00 -5.256025050685E+00  5.283795704334E+00
 O   1.800512565461E+00  2.032592921461E+00  6.776808880004E+00
 H   1.968241771604E+00  1.602669040908E+00  5.893251609857E+00
 H   2.186193838202E+00  1.507400067893E+00  7.496539361808E+00
 O   5.444214368076E+00 -1.544916524875E+00  6.034468285868E+00
 H   5.342325785187E+00 -6.921914051693E-01  6.535014880784E+00
 H   4.549183463272E+00 -1.922607873643E+00  5.905666171181E+00
 O  -5.821680810422E+00  1.020061032372E+00  6.805621223127E+00
 H  -5.969329029973E+00  1.204278768933E+00  5.831319939738E+00
 H   4.852184175111E+00  1.559829178357E+00  7.373608393697E+00
 H   1.519325336826E+00  1.138782190951E+01  6.533804131558E+00
 O   2.300704642616E+00  1.138681715220E+01  5.930092520447E+00
 H   2.601513359262E+00  1.043860675414E+01  5.933826658761E+00
 H  -2.491354665727E+00 -1.357640246299E+00  6.895650443611E+00
 O  -2.585828996477E+00 -1.007646214303E+00  5.991309142393E+00
 H  -3.253111755907E+00 -1.602116044949E+00  5.551664207429E+00
 O  -7.649052382533E-01  2.607984365592E+00  5.987248606957E+00
 H  -1.618590425946E+00  2.155005788740E+00  6.180640604692E+00
 H  -7.001261939511E-02  2.330469218211E+00  6.623278961009E+00
 H  -1.678381227813E+00  4.417137751130E+00  6.199116516702E+00
 O  -1.993345941013E+00  5.296366844878E+00  5.897097008289E+00
 H  -2.932783084848E+00  5.377554407042E+00  6.163684818911E+00
 O   3.796297556807E+00  4.334405009109E+00  4.375872920225E+00
 O   1.835737367124E+00  4.904665579729E+00  6.204640866340E+00
 H   1.839754686060E+00  4.288690009667E+00  6.968604660096E+00
 H   7.102521229661E+00  9.390289498227E+00  6.370804917988E+00
 O   7.717019607417E+00  8.749906148603E+00  5.976133202181E+00
 H   7.459617621077E+00  7.870204602915E+00  6.350734687905E+00
 H   1.154885760157E+01  4.492167565097E+00  5.177823363629E+00
 H   1.215076259106E+01  7.100146753356E+00  7.076876348158E+00
 O   1.295378401744E+01  6.730926130632E+00  7.527993794481E+00
 H   1.270195527607E+01  6.480455767872E+00  8.440940024082E+00
