    2
V2Bi4O11                                
 O   1.000000000000E+01  1.000000000000E+01  1.000000000000E+01
 O   9.940000000000E+00  1.040000000000E+01  1.100000000000E+01
    2
V2Bi4O11                                 E -1.5018042294309E+02 DE-2.4E-12(  7)
 O   1.000423323119E+01  9.971778458765E+00  9.929446146912E+00
 O   9.935766768815E+00  1.042822154124E+01  1.107055385309E+01
    2
V2Bi4O11                                 E -1.5023407457850E+02 DE-5.5E-11(  6)
 O   1.000455670773E+01  9.969621948498E+00  9.924054871244E+00
 O   9.935443292275E+00  1.043037805150E+01  1.107594512876E+01
    2
V2Bi4O11                                 E -1.5023452558457E+02 DE-1.9E-10(  5)
 O   1.000469575829E+01  9.968694944753E+00  9.921737361882E+00
 O   9.935304241713E+00  1.043130505525E+01  1.107826263812E+01
    2
V2Bi4O11                                 E -1.5023461020756E+02 DE-7.6E-10(  5)
 O   1.000481354841E+01  9.967909677269E+00  9.919774193172E+00
 O   9.935186451590E+00  1.043209032273E+01  1.108022580683E+01
    2
V2Bi4O11                                 E -1.5023463334925E+02 DE-3.2E-10(  5)
 O   1.000481718160E+01  9.967885455977E+00  9.919713639941E+00
 O   9.935182818396E+00  1.043211454402E+01  1.108028636006E+01
    2
V2Bi4O11                                 E -1.5023463336807E+02 DE 3.0E-10(  3)
 O   1.000481718160E+01  9.967885455977E+00  9.919713639941E+00
 O   9.935182818396E+00  1.043211454402E+01  1.108028636006E+01
