   18
V2Bi4O11                                
 O   9.115042190175E+00  1.079568823360E+01  1.060933503942E+01
 H   9.940079177416E+00  1.024488486310E+01  1.061545641563E+01
 H   8.733433521519E+00  1.067570029043E+01  9.707747979114E+00
 O   7.287527357495E+00  7.751806421709E+00  9.897033206012E+00
 H   6.473241141005E+00  7.216249035719E+00  9.841758957141E+00
 H   7.234360564380E+00  8.305834715864E+00  1.075042059505E+01
 O   7.343601819469E+00  9.387373174964E+00  1.190382925732E+01
 H   8.045892648511E+00  1.000474104100E+01  1.149611994643E+01
 H   7.673213122043E+00  9.121519904363E+00  1.277401817877E+01
 O   9.842161975187E+00  6.790162312053E+00  9.868916968157E+00
 H   9.923729596076E+00  6.064113711140E+00  1.050369244846E+01
 H   8.885024533708E+00  7.043785907283E+00  9.850009922442E+00
 H   7.519856859755E+00  9.143117510255E+00  8.703910950813E+00
 O   7.787964721614E+00  9.988336292916E+00  8.274125763956E+00
 H   6.971327999657E+00  1.048720461963E+01  8.126874662606E+00
 H   1.188950329467E+01  9.218876308332E+00  9.907952639812E+00
 O   1.121898698303E+01  9.031103729405E+00  1.058042729638E+01
 H   1.076965391384E+01  8.190366324507E+00  1.030079389517E+01
   18
V2Bi4O11                                 E -4.5857681325043E+02 DE 5.1E-09(  6)
 O   9.103746287752E+00  1.080418825490E+01  1.060990818777E+01
 H   9.923481292982E+00  1.024506522020E+01  1.058636583437E+01
 H   8.700751544819E+00  1.070569845441E+01  9.714602380275E+00
 O   7.280051070500E+00  7.757837658322E+00  9.903793045408E+00
 H   6.474471881286E+00  7.220673979636E+00  9.851650953155E+00
 H   7.233754614221E+00  8.308331111150E+00  1.075989468625E+01
 O   7.351385388955E+00  9.384242464187E+00  1.191781052726E+01
 H   8.046692812888E+00  1.000592671907E+01  1.150466276136E+01
 H   7.692484154739E+00  9.114836746907E+00  1.278251918075E+01
 O   9.841702346020E+00  6.808230456494E+00  9.848025762092E+00
 H   9.931173980948E+00  6.076647463341E+00  1.047535779473E+01
 H   8.883014007259E+00  7.058243893423E+00  9.838842827641E+00
 H   7.495751440725E+00  9.154633438157E+00  8.713195806691E+00
 O   7.749455997543E+00  1.000551313209E+01  8.285654341603E+00
 H   6.913914254278E+00  1.044509513315E+01  8.041813614005E+00
 H   1.204436664549E+01  9.114072773225E+00  1.002032227515E+01
 O   1.122019139616E+01  9.044271592970E+00  1.057251405743E+01
 H   1.076821230299E+01  8.207355904632E+00  1.028549008675E+01
   18
V2Bi4O11                                 E -4.5857581435971E+02 DE-5.4E-09(  8)
 O   9.114674744088E+00  1.079474354935E+01  1.061405413112E+01
 H   9.935724466827E+00  1.023780594932E+01  1.060859260557E+01
 H   8.725248256824E+00  1.068577247131E+01  9.714366583656E+00
 O   7.285082863178E+00  7.754512151646E+00  9.899279482493E+00
 H   6.474969379092E+00  7.220646540352E+00  9.841855919342E+00
 H   7.233932090164E+00  8.306563571657E+00  1.075405428923E+01
 O   7.344791513472E+00  9.385538820878E+00  1.190968579464E+01
 H   8.046542460524E+00  1.000331465606E+01  1.150166729390E+01
 H   7.676318131985E+00  9.117548127308E+00  1.277846207014E+01
 O   9.841657160464E+00  6.793880940779E+00  9.865836040511E+00
 H   9.925115076007E+00  6.068060118726E+00  1.050056999934E+01
 H   8.884118034276E+00  7.047072426473E+00  9.848894805980E+00
 H   7.517580404425E+00  9.148966331414E+00  8.709458699226E+00
 O   7.782985565628E+00  9.996442910685E+00  8.282482315672E+00
 H   6.959660482456E+00  1.047060153233E+01  8.088260125344E+00
 H   1.191883120412E+01  9.198866015579E+00  9.924938380703E+00
 O   1.121835153785E+01  9.035774477508E+00  1.057441368933E+01
 H   1.076901804817E+01  8.194753804893E+00  1.029555189651E+01
   18
V2Bi4O11                                 E -4.5857684711293E+02 DE 1.7E-09(  8)
 O   9.103644397030E+00  1.080342536238E+01  1.061760451015E+01
 H   9.925458389457E+00  1.024748929254E+01  1.060123389485E+01
 H   8.707673203505E+00  1.070169346351E+01  9.719774120327E+00
 O   7.286911620397E+00  7.755516912359E+00  9.899949201831E+00
 H   6.477729532439E+00  7.226529438077E+00  9.836523586799E+00
 H   7.236064060704E+00  8.304769167109E+00  1.075655728117E+01
 O   7.345703481693E+00  9.380743770648E+00  1.191517202918E+01
 H   8.042884389175E+00  1.000319629599E+01  1.150633606202E+01
 H   7.681928809075E+00  9.111487698622E+00  1.278175790313E+01
 O   9.841006461968E+00  6.785112494375E+00  9.870449586886E+00
 H   9.921920848464E+00  6.061110632623E+00  1.050754787482E+01
 H   8.884221268057E+00  7.041731156791E+00  9.852476230144E+00
 H   7.530808227492E+00  9.153516218729E+00  8.716097284346E+00
 O   7.800474118301E+00  1.000194618229E+01  8.293685697095E+00
 H   6.976309585162E+00  1.046577914389E+01  8.069167962832E+00
 H   1.189619636760E+01  9.206828328670E+00  9.900024829757E+00
 O   1.122341609947E+01  9.025512825176E+00  1.057197363536E+01
 H   1.077225055956E+01  8.184476012500E+00  1.029609243200E+01
   18
V2Bi4O11                                 E -4.5857683719996E+02 DE-1.0E-09(  6)
 O   9.112209586235E+00  1.079697594650E+01  1.061452034342E+01
 H   9.933502381146E+00  1.024036227143E+01  1.060616998599E+01
 H   8.720954344634E+00  1.068975408504E+01  9.715391835402E+00
 O   7.285407348312E+00  7.754808340079E+00  9.899538568827E+00
 H   6.475751397794E+00  7.222245463448E+00  9.840782857705E+00
 H   7.234648774966E+00  8.306213507949E+00  1.075475599662E+01
 O   7.345641057715E+00  9.384404799765E+00  1.191112774192E+01
 H   8.046136377927E+00  1.000334394242E+01  1.150269242194E+01
 H   7.678631588136E+00  9.116040170774E+00  1.277922714287E+01
 O   9.841469469448E+00  6.791786168805E+00  9.866531046338E+00
 H   9.924314188177E+00  6.065885131013E+00  1.050123713546E+01
 H   8.884093524667E+00  7.045805484055E+00  9.849524982194E+00
 H   7.520479498557E+00  9.150092018761E+00  8.711067071514E+00
 O   7.786835761848E+00  9.997772836559E+00  8.285098749510E+00
 H   6.963219896656E+00  1.046907409287E+01  8.082861154376E+00
 H   1.191220135123E+01  9.201620337457E+00  9.919906753654E+00
 O   1.121948271348E+01  9.032696413128E+00  1.057546590651E+01
 H   1.076962215862E+01  8.191983386209E+00  1.029652442845E+01
   18
V2Bi4O11                                 E -4.5857686036628E+02 DE-7.2E-10(  6)
 O   9.113836121703E+00  1.079813057961E+01  1.061555355541E+01
 H   9.937128727779E+00  1.024467172088E+01  1.061005386161E+01
 H   8.724571323392E+00  1.068854529265E+01  9.715992631256E+00
 O   7.283433373286E+00  7.754046838852E+00  9.899828580503E+00
 H   6.477122266202E+00  7.222617961185E+00  9.841288910554E+00
 H   7.235127852489E+00  8.306305089732E+00  1.075465720590E+01
 O   7.346928689966E+00  9.384544994413E+00  1.191098464529E+01
 H   8.047596890240E+00  1.000356813499E+01  1.150288323051E+01
 H   7.679934331632E+00  9.115604124552E+00  1.277886966220E+01
 O   9.841170140632E+00  6.791139882967E+00  9.865750796115E+00
 H   9.924441500920E+00  6.065179251559E+00  1.050028641954E+01
 H   8.883539451093E+00  7.044866598447E+00  9.849076668732E+00
 H   7.518320592871E+00  9.147358988221E+00  8.708222427287E+00
 O   7.786137033469E+00  9.992671990761E+00  8.278561594503E+00
 H   6.966003754734E+00  1.047143197939E+01  8.087074563145E+00
 H   1.190619867615E+01  9.205152854071E+00  9.919712358045E+00
 O   1.121575633689E+01  9.033154541402E+00  1.057651265807E+01
 H   1.076735435611E+01  8.191873572574E+00  1.029711435402E+01
   18
V2Bi4O11                                 E -4.5857688798772E+02 DE-6.1E-09(  6)
 O   9.112880121121E+00  1.079677864612E+01  1.061231309894E+01
 H   9.938211433544E+00  1.024645050782E+01  1.061069568472E+01
 H   8.725395173396E+00  1.068129336341E+01  9.712878818742E+00
 O   7.282378908825E+00  7.754238922890E+00  9.900238268454E+00
 H   6.476016012313E+00  7.223212506249E+00  9.840501618906E+00
 H   7.235279806690E+00  8.306166387916E+00  1.075522014314E+01
 O   7.348600758522E+00  9.383619038551E+00  1.191175079658E+01
 H   8.048358902644E+00  1.000261710522E+01  1.150212433667E+01
 H   7.683832653396E+00  9.114194724825E+00  1.277864449525E+01
 O   9.840493422274E+00  6.791042136190E+00  9.865901636891E+00
 H   9.924008335836E+00  6.065048014521E+00  1.050037002166E+01
 H   8.882834486279E+00  7.044484843936E+00  9.849342004699E+00
 H   7.519758616493E+00  9.148074119816E+00  8.709634695021E+00
 O   7.789554330271E+00  9.992831216962E+00  8.280235542448E+00
 H   6.970824015192E+00  1.047328119101E+01  8.087925339780E+00
 H   1.189839695423E+01  9.210967095257E+00  9.918166427806E+00
 O   1.121261443489E+01  9.034085803285E+00  1.057824524633E+01
 H   1.076516305364E+01  8.192478772286E+00  1.029823594666E+01
   18
V2Bi4O11                                 E -4.5857689080116E+02 DE 3.8E-09(  5)
 O   9.109437201755E+00  1.079949627089E+01  1.061115959319E+01
 H   9.935595362559E+00  1.025047563159E+01  1.060819273717E+01
 H   8.721071269576E+00  1.068426501907E+01  9.712275491202E+00
 O   7.280366468564E+00  7.754114034658E+00  9.901555927401E+00
 H   6.474263873965E+00  7.222361019765E+00  9.840880361016E+00
 H   7.236125217630E+00  8.306337177165E+00  1.075625623063E+01
 O   7.349546783791E+00  9.383047793536E+00  1.191283274597E+01
 H   8.047576216409E+00  1.000321002269E+01  1.150214904647E+01
 H   7.687449144402E+00  9.113001163057E+00  1.277852108920E+01
 O   9.840249002302E+00  6.790315243024E+00  9.864780376322E+00
 H   9.923730535072E+00  6.063980048599E+00  1.049887773864E+01
 H   8.882794958965E+00  7.044167410890E+00  9.849091957262E+00
 H   7.519633390252E+00  9.146310023343E+00  8.709254331274E+00
 O   7.792828432715E+00  9.988201025035E+00  8.276709002188E+00
 H   6.978238086813E+00  1.047656031901E+01  8.092329191289E+00
 H   1.189613453360E+01  9.212650874838E+00  9.918270555532E+00
 O   1.121423926792E+01  9.031201201229E+00  1.058091790588E+01
 H   1.076532167326E+01  8.191170117886E+00  1.029836984205E+01
   18
V2Bi4O11                                 E -4.5857689723790E+02 DE 2.1E-09(  6)
 O   9.112712414450E+00  1.079934033173E+01  1.061485311890E+01
 H   9.938066539473E+00  1.024919111257E+01  1.061308957645E+01
 H   8.726186859373E+00  1.068541710809E+01  9.714911672506E+00
 O   7.279117694132E+00  7.754609543652E+00  9.902017091035E+00
 H   6.472906757050E+00  7.222350986993E+00  9.842151766566E+00
 H   7.236281100241E+00  8.307045858469E+00  1.075662473979E+01
 O   7.349900496239E+00  9.383419495434E+00  1.191335756867E+01
 H   8.048735013639E+00  1.000336225949E+01  1.150365103011E+01
 H   7.687366673910E+00  9.112334839236E+00  1.277888631748E+01
 O   9.839912728301E+00  6.790881420802E+00  9.863659566582E+00
 H   9.923382430330E+00  6.064110729341E+00  1.049728000231E+01
 H   8.882582701261E+00  7.044908630491E+00  9.848471995481E+00
 H   7.518134629456E+00  9.145441235265E+00  8.708464450306E+00
 O   7.791870321015E+00  9.986328681336E+00  8.274366864671E+00
 H   6.976951217308E+00  1.047287705183E+01  8.083996253426E+00
 H   1.189043288007E+01  9.217535969231E+00  9.915423645298E+00
 O   1.121484489409E+01  9.030431866480E+00  1.058263482492E+01
 H   1.076521606922E+01  8.191277275831E+00  1.029858363819E+01
   18
V2Bi4O11                                 E -4.5857689958467E+02 DE 2.2E-09(  6)
 O   9.109605450209E+00  1.080208904890E+01  1.061674460644E+01
 H   9.936755534094E+00  1.025473857849E+01  1.061814537616E+01
 H   8.726084058511E+00  1.068544355311E+01  9.715647225662E+00
 O   7.277962987818E+00  7.754496109376E+00  9.902113875925E+00
 H   6.471205319579E+00  7.222936562853E+00  9.842267242910E+00
 H   7.235897591266E+00  8.306325924920E+00  1.075719584867E+01
 O   7.349678574797E+00  9.381620622590E+00  1.191479860416E+01
 H   8.047006898725E+00  1.000323408078E+01  1.150487852602E+01
 H   7.689489646924E+00  9.109426598361E+00  1.277908935098E+01
 O   9.839051739636E+00  6.790016580066E+00  9.864104840444E+00
 H   9.922857567824E+00  6.065225170858E+00  1.049996607375E+01
 H   8.881845854456E+00  7.044095869527E+00  9.848773941426E+00
 H   7.519932300305E+00  9.144879342810E+00  8.709412363946E+00
 O   7.796398738850E+00  9.984891279313E+00  8.275252849191E+00
 H   6.982178252184E+00  1.047219800414E+01  8.080207571922E+00
 H   1.189218982061E+01  9.214605776005E+00  9.912167679041E+00
 O   1.121250679850E+01  9.032615181359E+00  1.057651657152E+01
 H   1.076395428526E+01  8.192026112815E+00  1.029514157452E+01
   18
V2Bi4O11                                 E -4.5857690020080E+02 DE-3.0E-09(  5)
 O   9.110037900217E+00  1.080120105997E+01  1.061645152857E+01
 H   9.936286956574E+00  1.025251873477E+01  1.061683833089E+01
 H   8.725846989766E+00  1.068578593471E+01  9.715417158869E+00
 O   7.277563422155E+00  7.754589207028E+00  9.902184998354E+00
 H   6.470746569663E+00  7.223185518376E+00  9.842669554398E+00
 H   7.235750505722E+00  8.306343262650E+00  1.075734478556E+01
 O   7.349850523533E+00  9.381444398405E+00  1.191503661685E+01
 H   8.047172714730E+00  1.000291196216E+01  1.150487410380E+01
 H   7.690151763056E+00  9.108889868235E+00  1.277902685579E+01
 O   9.838972042625E+00  6.790398955557E+00  9.864073046602E+00
 H   9.922946615466E+00  6.065713856447E+00  1.050003923119E+01
 H   8.881749072623E+00  7.044300277905E+00  9.848744058981E+00
 H   7.520105394706E+00  9.144813909422E+00  8.709748954403E+00
 O   7.797366614489E+00  9.984568518009E+00  8.275549732750E+00
 H   6.983452086636E+00  1.047240400142E+01  8.080164036010E+00
 H   1.189168177249E+01  9.215320832754E+00  9.912548001271E+00
 O   1.121151528435E+01  9.033659903711E+00  1.057650271622E+01
 H   1.076340519075E+01  8.192814194741E+00  1.029521041218E+01
   18
V2Bi4O11                                 E -4.5857690129883E+02 DE-8.8E-09(  3)
 O   9.109776391273E+00  1.080038789882E+01  1.061583442933E+01
 H   9.935435857364E+00  1.025079366217E+01  1.061585368167E+01
 H   8.725205798906E+00  1.068470089802E+01  9.715077553960E+00
 O   7.277170651358E+00  7.755080617219E+00  9.902362092318E+00
 H   6.470479786974E+00  7.223726720583E+00  9.843400208834E+00
 H   7.235601790370E+00  8.306703082747E+00  1.075763713864E+01
 O   7.349772996233E+00  9.381561942481E+00  1.191551493654E+01
 H   8.046967459383E+00  1.000287116157E+01  1.150499770587E+01
 H   7.690586402168E+00  9.108624236285E+00  1.277918669360E+01
 O   9.839030098850E+00  6.791032341877E+00  9.863642971857E+00
 H   9.922924901615E+00  6.066000116159E+00  1.049922197209E+01
 H   8.881842955318E+00  7.045068642077E+00  9.848474735267E+00
 H   7.519871108952E+00  9.145182785708E+00  8.710046531478E+00
 O   7.797550439547E+00  9.984690402127E+00  8.275578079983E+00
 H   6.983891427452E+00  1.047200178289E+01  8.079298187976E+00
 H   1.189194454381E+01  9.215990120973E+00  9.912978046516E+00
 O   1.121262439066E+01  9.033351811873E+00  1.057771926956E+01
 H   1.076392441932E+01  8.193096172685E+00  1.029559988720E+01
   18
V2Bi4O11                                 E -4.5857690283298E+02 DE-3.3E-08(  3)
 O   9.109214101091E+00  1.080072193455E+01  1.061544615582E+01
 H   9.934783464379E+00  1.025090160442E+01  1.061450891175E+01
 H   8.724011852996E+00  1.068526251050E+01  9.714962226751E+00
 O   7.276127016609E+00  7.755498095600E+00  9.902755840253E+00
 H   6.469228962458E+00  7.224427209816E+00  9.844703720384E+00
 H   7.235698695400E+00  8.306813341577E+00  1.075832148856E+01
 O   7.351213914536E+00  9.380822527594E+00  1.191684325345E+01
 H   8.047486310466E+00  1.000265995297E+01  1.150554663438E+01
 H   7.693938321431E+00  9.106838295645E+00  1.277946080591E+01
 O   9.838457519243E+00  6.791586653867E+00  9.862599829819E+00
 H   9.922582622879E+00  6.066141438944E+00  1.049767373522E+01
 H   8.881284269854E+00  7.045521678139E+00  9.847873228555E+00
 H   7.519920269512E+00  9.144974423819E+00  8.710439802569E+00
 O   7.799093057335E+00  9.983694195932E+00  8.275313283703E+00
 H   6.986165314204E+00  1.047073295990E+01  8.075799698946E+00
 H   1.189124046011E+01  9.216844583760E+00  9.914959867500E+00
 O   1.121132829308E+01  9.033719935036E+00  1.057915918319E+01
 H   1.076282697398E+01  8.193703054200E+00  1.029605645593E+01
   18
V2Bi4O11                                 E -4.5857690413268E+02 DE-5.7E-08(  3)
 O   9.108069599072E+00  1.080008458000E+01  1.061652029832E+01
 H   9.933017897499E+00  1.024917237256E+01  1.061577077325E+01
 H   8.723043003856E+00  1.068463528382E+01  9.715985929259E+00
 O   7.273871829322E+00  7.756569804566E+00  9.903526888263E+00
 H   6.466606981460E+00  7.225980029986E+00  9.846676486933E+00
 H   7.235130907141E+00  8.307198155042E+00  1.075967226840E+01
 O   7.351844470695E+00  9.379523163758E+00  1.191950138795E+01
 H   8.046994908061E+00  1.000201310090E+01  1.150744244715E+01
 H   7.697468786450E+00  9.103351076140E+00  1.278027434496E+01
 O   9.837340735048E+00  6.792702432513E+00  9.861900502007E+00
 H   9.921580087283E+00  6.067685413675E+00  1.049744425244E+01
 H   8.880269617335E+00  7.046783451013E+00  9.847520175520E+00
 H   7.521196664069E+00  9.144439565121E+00  8.711278258989E+00
 O   7.804243953927E+00  9.981214971027E+00  8.274789710098E+00
 H   6.993515479888E+00  1.046888148132E+01  8.068939176455E+00
 H   1.188715895215E+01  9.220880048215E+00  9.911349282409E+00
 O   1.121107773659E+01  9.034707073979E+00  1.057864308448E+01
 H   1.076216980972E+01  8.195042392637E+00  1.029518885581E+01
   18
V2Bi4O11                                 E -4.5857690567762E+02 DE-2.2E-07(  3)
 O   9.105631881071E+00  1.080151084033E+01  1.061340990040E+01
 H   9.931493005269E+00  1.025186460659E+01  1.061326358022E+01
 H   8.720800955137E+00  1.068292522763E+01  9.713113652429E+00
 O   7.269448464091E+00  7.758210611350E+00  9.904984269472E+00
 H   6.461719308045E+00  7.227734735688E+00  9.852717424132E+00
 H   7.234915386235E+00  8.307995509828E+00  1.076199240094E+01
 O   7.357422934676E+00  9.377302723069E+00  1.192394864409E+01
 H   8.048826753896E+00  1.000176022174E+01  1.150841617466E+01
 H   7.711039837229E+00  9.097475956408E+00  1.278042768684E+01
 O   9.835152359347E+00  6.796812900191E+00  9.856455578337E+00
 H   9.920348649160E+00  6.069033798004E+00  1.048871867302E+01
 H   8.877997703317E+00  7.050213735887E+00  9.844090480456E+00
 H   7.518315264445E+00  9.142998651772E+00  8.711961339829E+00
 O   7.805546807710E+00  9.977047558490E+00  8.272796777438E+00
 H   6.997112940359E+00  1.046417117958E+01  8.057063588489E+00
 H   1.189128654711E+01  9.220164301965E+00  9.925261099602E+00
 O   1.120849124417E+01  9.035575150356E+00  1.058633829748E+01
 H   1.075905137829E+01  8.198066687398E+00  1.029746455486E+01
   18
V2Bi4O11                                 E -4.5857690746181E+02 DE 3.4E-09(  6)
 O   9.103639319312E+00  1.080335266043E+01  1.061738280371E+01
 H   9.929616115745E+00  1.025388899493E+01  1.061658619019E+01
 H   8.719128515978E+00  1.068644499994E+01  9.716858614122E+00
 O   7.266544725979E+00  7.759353423413E+00  9.906016270252E+00
 H   6.458246579699E+00  7.229769839807E+00  9.854579221961E+00
 H   7.234244141159E+00  8.307967826052E+00  1.076389619454E+01
 O   7.359183974612E+00  9.374528703366E+00  1.192829574633E+01
 H   8.048484072686E+00  1.000099995402E+01  1.151225250097E+01
 H   7.716907884492E+00  9.091456565768E+00  1.278198592707E+01
 O   9.832637066360E+00  6.797642580314E+00  9.855793744956E+00
 H   9.917982931567E+00  6.070588443821E+00  1.048885468639E+01
 H   8.875575347899E+00  7.051219240213E+00  9.843720588929E+00
 H   7.521605178170E+00  9.141496071417E+00  8.713150033144E+00
 O   7.814108737204E+00  9.973258850708E+00  8.273086367027E+00
 H   7.008407446625E+00  1.045843998829E+01  8.042756017326E+00
 H   1.188427146131E+01  9.224787757694E+00  9.918027112350E+00
 O   1.120667414514E+01  9.036779206277E+00  1.058343922658E+01
 H   1.075734377562E+01  8.198889289794E+00  1.029574287685E+01
   18
V2Bi4O11                                 E -4.5857690834395E+02 DE-2.9E-10(  6)
 O   9.103629248619E+00  1.080336957817E+01  1.061641000272E+01
 H   9.929958602334E+00  1.025458091666E+01  1.061675860380E+01
 H   8.719523025889E+00  1.068531265183E+01  9.715830093382E+00
 O   7.266347243316E+00  7.759305051361E+00  9.906134460759E+00
 H   6.458280435084E+00  7.229244836574E+00  9.854995899549E+00
 H   7.234040677764E+00  8.308150014947E+00  1.076382714891E+01
 O   7.359782570556E+00  9.374765454214E+00  1.192810704614E+01
 H   8.048816045375E+00  1.000121216672E+01  1.151171582344E+01
 H   7.718091352337E+00  9.091871821979E+00  1.278150567350E+01
 O   9.832345097873E+00  6.798783045490E+00  9.855041387164E+00
 H   9.917868936755E+00  6.070783549563E+00  1.048700987367E+01
 H   8.875132676337E+00  7.052016339198E+00  9.843150188788E+00
 H   7.520536369383E+00  9.140945281912E+00  8.712528376465E+00
 O   7.812427813351E+00  9.972845888960E+00  8.272515062225E+00
 H   7.006730328264E+00  1.045825140277E+01  8.043961988476E+00
 H   1.188680377082E+01  9.223347238394E+00  9.921543908387E+00
 O   1.120695654645E+01  9.036798827093E+00  1.058490713338E+01
 H   1.075733067905E+01  8.199280330431E+00  1.029648145192E+01
   18
V2Bi4O11                                 E -4.5857690888687E+02 DE-3.9E-08(  3)
 O   9.103284347797E+00  1.080348579245E+01  1.061654582514E+01
 H   9.929826701832E+00  1.025516833973E+01  1.061772404002E+01
 H   8.719538411134E+00  1.068456525987E+01  9.715907340973E+00
 O   7.265627857894E+00  7.759564431043E+00  9.906627973193E+00
 H   6.457757774204E+00  7.229151410814E+00  9.855620998117E+00
 H   7.233551095934E+00  8.308350173823E+00  1.076435019225E+01
 O   7.360691472344E+00  9.374267861050E+00  1.192908415526E+01
 H   8.049074997063E+00  1.000110127821E+01  1.151226892946E+01
 H   7.720389621269E+00  9.090801023849E+00  1.278167305464E+01
 O   9.831361935764E+00  6.800348650977E+00  9.854445893163E+00
 H   9.917095938690E+00  6.071524141771E+00  1.048544633655E+01
 H   8.873973143595E+00  7.053186915645E+00  9.842693181316E+00
 H   7.520513549002E+00  9.140253999692E+00  8.712103748240E+00
 O   7.812802334929E+00  9.972051517476E+00  8.272229334510E+00
 H   7.007491380306E+00  1.045676610452E+01  8.040772538883E+00
 H   1.188749951985E+01  9.223186461603E+00  9.922653387762E+00
 O   1.120708548731E+01  9.037156290188E+00  1.058549353395E+01
 H   1.075703585064E+01  8.199934743555E+00  1.029678365927E+01
   18
V2Bi4O11                                 E -4.5857690913381E+02 DE-1.8E-08(  3)
 O   9.103277670563E+00  1.080367814460E+01  1.061604098326E+01
 H   9.929959286656E+00  1.025555236482E+01  1.061746885838E+01
 H   8.719648853537E+00  1.068440043287E+01  9.715383985278E+00
 O   7.265352369026E+00  7.759460756237E+00  9.906928980223E+00
 H   6.457664700159E+00  7.228739853361E+00  9.855974487396E+00
 H   7.233253941558E+00  8.308420872128E+00  1.076453381276E+01
 O   7.361294606037E+00  9.374103304979E+00  1.192928881242E+01
 H   8.049326852916E+00  1.000113158797E+01  1.151214809413E+01
 H   7.721630752288E+00  9.090484516525E+00  1.278157140230E+01
 O   9.830843323889E+00  6.801332315152E+00  9.854077141026E+00
 H   9.916727078329E+00  6.071725340794E+00  1.048414017777E+01
 H   8.873306694119E+00  7.053737100686E+00  9.842357633015E+00
 H   7.520411175097E+00  9.139598049291E+00  8.711611359558E+00
 O   7.812704803501E+00  9.971540544504E+00  8.272035355712E+00
 H   7.007507272350E+00  1.045646480652E+01  8.040873533692E+00
 H   1.188804296588E+01  9.222918017163E+00  9.924182016674E+00
 O   1.120690552434E+01  9.037307878012E+00  1.058642579587E+01
 H   1.075674354931E+01  8.200268510658E+00  1.029738169321E+01
   18
V2Bi4O11                                 E -4.5857690924265E+02 DE-6.6E-09(  3)
 O   9.103062232366E+00  1.080377412721E+01  1.061596438727E+01
 H   9.929733239810E+00  1.025558944798E+01  1.061743916328E+01
 H   8.719453974513E+00  1.068422183676E+01  9.715340063605E+00
 O   7.264821543459E+00  7.759559495018E+00  9.907433304631E+00
 H   6.457273131344E+00  7.228662402057E+00  9.856623616113E+00
 H   7.232874132037E+00  8.308631398201E+00  1.076500352379E+01
 O   7.361812482227E+00  9.373776281523E+00  1.192994916349E+01
 H   8.049412928984E+00  1.000107752827E+01  1.151248464538E+01
 H   7.723014411544E+00  9.089661409645E+00  1.278173333267E+01
 O   9.830220958878E+00  6.802378234762E+00  9.853733452260E+00
 H   9.916275943599E+00  6.072066192033E+00  1.048294046670E+01
 H   8.872547909780E+00  7.054365402952E+00  9.842042764731E+00
 H   7.520786517769E+00  9.138968786284E+00  8.711131927016E+00
 O   7.813639858017E+00  9.970818301671E+00  8.271728982296E+00
 H   7.008666204922E+00  1.045577214959E+01  8.039650549326E+00
 H   1.188780817075E+01  9.223303251661E+00  9.924612104931E+00
 O   1.120676448172E+01  9.037558717536E+00  1.058694753958E+01
 H   1.075643329783E+01  8.200679433121E+00  1.029766513563E+01
   18
V2Bi4O11                                 E -4.5857690928593E+02 DE-2.0E-09(  3)
 O   9.103042541715E+00  1.080367560496E+01  1.061579740963E+01
 H   9.929662996974E+00  1.025536694459E+01  1.061731795490E+01
 H   8.719424765633E+00  1.068397531201E+01  9.715194945282E+00
 O   7.264673429494E+00  7.759576736947E+00  9.907706690203E+00
 H   6.457175161048E+00  7.228631679360E+00  9.857035682204E+00
 H   7.232770443520E+00  8.308825144665E+00  1.076519232695E+01
 O   7.361800953396E+00  9.373858074668E+00  1.193004161234E+01
 H   8.049362866688E+00  1.000112405787E+01  1.151250582791E+01
 H   7.723140632786E+00  9.089626761289E+00  1.278172467758E+01
 O   9.830176226236E+00  6.802707942623E+00  9.853570174544E+00
 H   9.916319934953E+00  6.071994431194E+00  1.048229942585E+01
 H   8.872444004912E+00  7.054501961424E+00  9.841886813552E+00
 H   7.520928416578E+00  9.138765844790E+00  8.710863523108E+00
 O   7.813900957654E+00  9.970605954005E+00  8.271518640478E+00
 H   7.008889732586E+00  1.045576566243E+01  8.039839712768E+00
 H   1.188772452865E+01  9.223526066702E+00  9.924881591704E+00
 O   1.120675762247E+01  9.037572772802E+00  1.058725977300E+01
 H   1.075640620426E+01  8.200763443930E+00  1.029778734069E+01
   18
V2Bi4O11                                 E -4.5857691059115E+02 DE-2.0E-08(  3)
 O   9.103129157051E+00  1.080362471793E+01  1.061595596909E+01
 H   9.929638162041E+00  1.025515750598E+01  1.061736999327E+01
 H   8.719488167802E+00  1.068419474718E+01  9.715337752835E+00
 O   7.264912456959E+00  7.759546004468E+00  9.907681199340E+00
 H   6.457352307542E+00  7.228688962232E+00  9.857015628151E+00
 H   7.232902321703E+00  8.308864383091E+00  1.076512415308E+01
 O   7.361391234904E+00  9.374130953064E+00  1.192984363412E+01
 H   8.049188997579E+00  1.000125908924E+01  1.151248226104E+01
 H   7.722297023678E+00  9.090060769675E+00  1.278175679801E+01
 O   9.830486285585E+00  6.802321157004E+00  9.853603207320E+00
 H   9.916560180324E+00  6.071718236813E+00  1.048246479908E+01
 H   8.872800858549E+00  7.054235613603E+00  9.841921989247E+00
 H   7.521004263486E+00  9.138927973287E+00  8.710977529108E+00
 O   7.813771943303E+00  9.970843477359E+00  8.271658323966E+00
 H   7.008611958762E+00  1.045586685385E+01  8.040191200663E+00
 H   1.188760788342E+01  9.223527097742E+00  9.924437923074E+00
 O   1.120685195012E+01  9.037402178511E+00  1.058698199131E+01
 H   1.075660626675E+01  8.200494675249E+00  1.029761976997E+01
   18
V2Bi4O11                                 E -4.5857691064516E+02 DE-4.4E-09(  3)
 O   9.103129405739E+00  1.080355661754E+01  1.061589930735E+01
 H   9.929509594371E+00  1.025489300106E+01  1.061737411162E+01
 H   8.719483015477E+00  1.068420443950E+01  9.715277341108E+00
 O   7.265060408697E+00  7.759556693748E+00  9.907978416562E+00
 H   6.457421145098E+00  7.228791712577E+00  9.857614227302E+00
 H   7.233077962369E+00  8.309133671782E+00  1.076527917999E+01
 O   7.360966940519E+00  9.374668531170E+00  1.192980217725E+01
 H   8.048951751566E+00  1.000161059835E+01  1.151248743421E+01
 H   7.721663975665E+00  9.090669787799E+00  1.278183483385E+01
 O   9.830870683778E+00  6.802136021256E+00  9.853128739918E+00
 H   9.916960712344E+00  6.071138487208E+00  1.048153154333E+01
 H   8.873206492540E+00  7.054059550676E+00  9.841619077272E+00
 H   7.521067038751E+00  9.138900373730E+00  8.710987330969E+00
 O   7.813673931832E+00  9.970838857105E+00  8.271617898073E+00
 H   7.008377738308E+00  1.045577345190E+01  8.040364342673E+00
 H   1.188765244979E+01  9.223545404759E+00  9.924841482020E+00
 O   1.120678368262E+01  9.037166178233E+00  1.058719584529E+01
 H   1.075674449009E+01  8.200221017887E+00  1.029759083390E+01
   18
V2Bi4O11                                 E -4.5857691071918E+02 DE-6.1E-09(  3)
 O   9.103087770855E+00  1.080356540795E+01  1.061592455610E+01
 H   9.929445252293E+00  1.025487451528E+01  1.061752141977E+01
 H   8.719514618768E+00  1.068415593487E+01  9.715283676382E+00
 O   7.265131356257E+00  7.759537637354E+00  9.908239388352E+00
 H   6.457451302709E+00  7.228823905851E+00  9.857991894065E+00
 H   7.233160951008E+00  8.309307807163E+00  1.076541974907E+01
 O   7.360713404938E+00  9.374974369274E+00  1.192985347004E+01
 H   8.048781362037E+00  1.000184091351E+01  1.151255458794E+01
 H   7.721357481600E+00  9.090957528716E+00  1.278190145821E+01
 O   9.831009472175E+00  6.802090331382E+00  9.852827355086E+00
 H   9.917068338566E+00  6.070817404846E+00  1.048090755117E+01
 H   8.873351737460E+00  7.053982385544E+00  9.841390771772E+00
 H   7.521261552613E+00  9.138765650638E+00  8.710947863132E+00
 O   7.813803736159E+00  9.970723209717E+00  8.271584686298E+00
 H   7.008471049452E+00  1.045561761682E+01  8.040403884865E+00
 H   1.188757785262E+01  9.223625732173E+00  9.924962918248E+00
 O   1.120664809238E+01  9.037103306583E+00  1.058720813876E+01
 H   1.075676608766E+01  8.200100738605E+00  1.029750075342E+01
   18
V2Bi4O11                                 E -4.5857691092499E+02 DE-2.9E-10(  3)
 O   9.103087770855E+00  1.080356540795E+01  1.061592455610E+01
 H   9.929445252293E+00  1.025487451528E+01  1.061752141977E+01
 H   8.719514618768E+00  1.068415593487E+01  9.715283676382E+00
 O   7.265131356257E+00  7.759537637354E+00  9.908239388352E+00
 H   6.457451302709E+00  7.228823905851E+00  9.857991894065E+00
 H   7.233160951008E+00  8.309307807163E+00  1.076541974907E+01
 O   7.360713404938E+00  9.374974369274E+00  1.192985347004E+01
 H   8.048781362037E+00  1.000184091351E+01  1.151255458794E+01
 H   7.721357481600E+00  9.090957528716E+00  1.278190145821E+01
 O   9.831009472175E+00  6.802090331382E+00  9.852827355086E+00
 H   9.917068338566E+00  6.070817404846E+00  1.048090755117E+01
 H   8.873351737460E+00  7.053982385544E+00  9.841390771772E+00
 H   7.521261552613E+00  9.138765650638E+00  8.710947863132E+00
 O   7.813803736159E+00  9.970723209717E+00  8.271584686298E+00
 H   7.008471049452E+00  1.045561761682E+01  8.040403884865E+00
 H   1.188757785262E+01  9.223625732173E+00  9.924962918248E+00
 O   1.120664809238E+01  9.037103306583E+00  1.058720813876E+01
 H   1.075676608766E+01  8.200100738605E+00  1.029750075342E+01
