    3
Ceria bulk                              
 O   3.085830000000E+00  1.172695100200E+01  8.500000000000E+00
 H   2.115196200000E+00  1.163674368660E+01  8.750000000000E+00
 H   3.254148000000E+00  1.269667964255E+01  8.500000000000E+00
    3
Ceria bulk                               E -7.6412567555143E+01 DE-3.5E-10(  7)
 O   3.074621539988E+00  1.172798466128E+01  8.502981192952E+00
 H   2.139147877908E+00  1.164933780732E+01  8.744302034632E+00
 H   3.241404782103E+00  1.268305186255E+01  8.502716772416E+00
    3
Ceria bulk                               E -7.6413933092220E+01 DE-2.1E-10(  6)
 O   3.070753637797E+00  1.173210126116E+01  8.504180811653E+00
 H   2.137180336392E+00  1.164360518423E+01  8.744556626581E+00
 H   3.247240225811E+00  1.268466788576E+01  8.501262561766E+00
    3
Ceria bulk                               E -7.6413967279895E+01 DE-6.7E-11(  5)
 O   3.070897798251E+00  1.173230786069E+01  8.504152460032E+00
 H   2.137053484803E+00  1.164357934252E+01  8.744588660408E+00
 H   3.247222916946E+00  1.268448712794E+01  8.501258879559E+00
    3
Ceria bulk                               E -7.6413967479020E+01 DE-8.5E-09(  3)
 O   3.070885361145E+00  1.173229753746E+01  8.504155246824E+00
 H   2.137068010047E+00  1.164358379644E+01  8.744585060275E+00
 H   3.247220828808E+00  1.268449299725E+01  8.501259692901E+00
    3
Ceria bulk                               E -7.6413967484611E+01 DE-1.9E-09(  3)
 O   3.070885361145E+00  1.173229753746E+01  8.504155246824E+00
 H   2.137068010047E+00  1.164358379644E+01  8.744585060275E+00
 H   3.247220828808E+00  1.268449299725E+01  8.501259692901E+00
