    3
Ceria bulk                              
 O   1.001936844732E+01  9.530982384688E+00  1.032280340052E+01
 O   9.814367279034E+00  1.086908490559E+01  1.094901200847E+01
 H   1.088949232191E+01  9.680324650923E+00  9.907224610042E+00
    3
Ceria bulk                               E -1.5090987767816E+02 DE-7.6E-11(  9)
 O   1.002953676565E+01  9.516216800611E+00  1.031159528105E+01
 O   9.798621979475E+00  1.089985698505E+01  1.096940960754E+01
 H   1.089506930314E+01  9.664318155545E+00  9.898035130444E+00
    3
Ceria bulk                               E -1.5091155966815E+02 DE-2.3E-10(  7)
 O   1.002569236985E+01  9.503087437412E+00  1.030863441708E+01
 O   9.807177563660E+00  1.090048900749E+01  1.096500162539E+01
 H   1.089035811476E+01  9.676815496295E+00  9.905403976569E+00
    3
Ceria bulk                               E -1.5091174504036E+02 DE-3.5E-11(  7)
 O   1.002413490753E+01  9.497085281220E+00  1.030717210319E+01
 O   9.811341883542E+00  1.090052588366E+01  1.096275193967E+01
 H   1.088775125719E+01  9.682780776324E+00  9.909115976166E+00
    3
Ceria bulk                               E -1.5091176719056E+02 DE-2.6E-09(  6)
 O   1.002412519586E+01  9.496781176019E+00  1.030706039474E+01
 O   9.811581099303E+00  1.090050615446E+01  1.096261430377E+01
 H   1.088752175310E+01  9.683104610723E+00  9.909365320526E+00
    3
Ceria bulk                               E -1.5091176729047E+02 DE-1.3E-08(  3)
 O   1.002412519586E+01  9.496781176019E+00  1.030706039474E+01
 O   9.811581099303E+00  1.090050615446E+01  1.096261430377E+01
 H   1.088752175310E+01  9.683104610723E+00  9.909365320526E+00
