    4
Ceria bulk                              
 O   1.001936844732E+01  9.530982384688E+00  1.032280340052E+01
 O   9.814367279034E+00  1.086908490559E+01  1.094901200847E+01
 H   1.088949232191E+01  9.680324650923E+00  9.907224610042E+00
 H   9.827571951743E+00  1.060960805879E+01  1.188955998097E+01
    4
Ceria bulk                               E -1.5152766269207E+02 DE-1.5E-10(  8)
 O   1.001936844732E+01  9.530982384688E+00  1.032280340052E+01
 O   9.814367279034E+00  1.086908490559E+01  1.094901200847E+01
 H   1.088949232191E+01  9.680324650923E+00  9.907224610042E+00
 H   9.827571951743E+00  1.060960805879E+01  1.188955998097E+01
