   19
V2Bi4O11                                
 O   1.003656454263E+01  1.062244757177E+01  9.674077625020E+00
 H   1.027539858044E+01  1.093913560373E+01  8.787575877311E+00
 H   1.069119948358E+01  9.851416706290E+00  9.991970553793E+00
 H   8.936318351981E+00  1.028246035515E+01  9.743221147187E+00
 O   7.471998766447E+00  7.112565260846E+00  9.943842716041E+00
 H   6.834180284409E+00  6.804680248002E+00  9.276581875888E+00
 H   7.181935299716E+00  6.735226694191E+00  1.079224671118E+01
 O   6.185792102077E+00  1.114092242628E+01  1.156872704402E+01
 H   6.523558112266E+00  1.158327402680E+01  1.236311600176E+01
 H   5.432749158874E+00  1.166407331656E+01  1.125163613814E+01
 O   1.022056442722E+01  6.715804507683E+00  9.211524413950E+00
 H   1.054419894070E+01  5.820223012293E+00  9.034339791719E+00
 H   9.278538139072E+00  6.654342654344E+00  9.468613634343E+00
 H   7.604063717913E+00  8.924761760338E+00  9.925150777558E+00
 O   7.732033782068E+00  9.897875722485E+00  9.834288310943E+00
 H   7.161980765044E+00  1.038588881827E+01  1.049966774519E+01
 H   1.234108071774E+01  8.696411117741E+00  1.061510119644E+01
 O   1.138107006206E+01  8.703070334775E+00  1.048970656919E+01
 H   1.108677476577E+01  7.865419862458E+00  1.002861187032E+01
   19
V2Bi4O11                                 E -4.5894375300118E+02 DE-1.0E-09(  2)
 O   1.003656454263E+01  1.062244757177E+01  9.674077625020E+00
 H   1.027539858044E+01  1.093913560373E+01  8.787575877311E+00
 H   1.069119948358E+01  9.851416706290E+00  9.991970553793E+00
 H   8.936318351981E+00  1.028246035515E+01  9.743221147187E+00
 O   7.471998766447E+00  7.112565260846E+00  9.943842716041E+00
 H   6.834180284409E+00  6.804680248002E+00  9.276581875888E+00
 H   7.181935299716E+00  6.735226694191E+00  1.079224671118E+01
 O   6.185792102077E+00  1.114092242628E+01  1.156872704402E+01
 H   6.523558112266E+00  1.158327402680E+01  1.236311600176E+01
 H   5.432749158874E+00  1.166407331656E+01  1.125163613814E+01
 O   1.022056442722E+01  6.715804507683E+00  9.211524413950E+00
 H   1.054419894070E+01  5.820223012293E+00  9.034339791719E+00
 H   9.278538139072E+00  6.654342654344E+00  9.468613634343E+00
 H   7.604063717913E+00  8.924761760338E+00  9.925150777558E+00
 O   7.732033782068E+00  9.897875722485E+00  9.834288310943E+00
 H   7.161980765044E+00  1.038588881827E+01  1.049966774519E+01
 H   1.234108071774E+01  8.696411117741E+00  1.061510119644E+01
 O   1.138107006206E+01  8.703070334775E+00  1.048970656919E+01
 H   1.108677476577E+01  7.865419862458E+00  1.002861187032E+01
