    4
V2Bi4O11                                
 O   1.000000000000E+01  1.000000000000E+01  1.000000000000E+01
 H   9.940000000000E+00  1.040000000000E+01  1.100000000000E+01
 H   1.080000000000E+01  9.600000000000E+00  1.000000000000E+01
 H   9.340000000000E+00  9.400000000000E+00  1.000000000000E+01
    4
V2Bi4O11                                 E -7.6659693502987E+01 DE-6.1E-10(  7)
 O   9.998314671912E+00  1.000873786731E+01  1.008434587262E+01
 H   9.936944122405E+00  1.043864383765E+01  1.099572973825E+01
 H   1.088659185620E+01  9.589245206698E+00  9.961532879125E+00
 H   9.258149349482E+00  9.363373088343E+00  9.958391510000E+00
    4
V2Bi4O11                                 E -7.6687918376342E+01 DE-3.4E-11(  7)
 O   9.998434610515E+00  1.000787987089E+01  1.010310433753E+01
 H   9.936864930689E+00  1.043868038308E+01  1.098536622839E+01
 H   1.088793974290E+01  9.589797740371E+00  9.957257760882E+00
 H   9.256760715893E+00  9.363642005656E+00  9.954271673201E+00
    4
V2Bi4O11                                 E -7.6688431620779E+01 DE-1.5E-11(  6)
 O   9.999309057990E+00  1.000128241185E+01  1.010603608502E+01
 H   9.936125182714E+00  1.044461107644E+01  1.099031066254E+01
 H   1.088828474785E+01  9.590242828352E+00  9.953393814436E+00
 H   9.256281011444E+00  9.363863683358E+00  9.950259438003E+00
    4
V2Bi4O11                                 E -7.6688548436712E+01 DE-7.6E-12(  6)
 O   1.000039583479E+01  9.993253379305E+00  1.011336605431E+01
 H   9.935631863828E+00  1.044847970727E+01  1.099052959361E+01
 H   1.088890093092E+01  9.592475682318E+00  9.949652405354E+00
 H   9.255071370463E+00  9.365791231107E+00  9.946451946724E+00
    4
V2Bi4O11                                 E -7.6688648952768E+01 DE-2.3E-12(  6)
 O   1.000158245499E+01  9.984591981515E+00  1.012261349909E+01
 H   9.935129150797E+00  1.045181204433E+01  1.098910097853E+01
 H   1.089018682671E+01  9.595341133380E+00  9.945714831696E+00
 H   9.253101567506E+00  9.368254840778E+00  9.942570690679E+00
    4
V2Bi4O11                                 E -7.6688702615785E+01 DE-1.5E-12(  6)
 O   1.000185809667E+01  9.982534056546E+00  1.012473594235E+01
 H   9.935010112872E+00  1.045257678627E+01  1.098877354050E+01
 H   1.089080373208E+01  9.596073402883E+00  9.944808401796E+00
 H   9.252328058380E+00  9.368815754303E+00  9.941682115355E+00
    4
V2Bi4O11                                 E -7.6688704783635E+01 DE-1.9E-11(  5)
 O   1.000190741912E+01  9.982149735835E+00  1.012503952322E+01
 H   9.934994864892E+00  1.045269431907E+01  1.098873531909E+01
 H   1.089096558063E+01  9.596230832463E+00  9.944676430213E+00
 H   9.252132135361E+00  9.368925112634E+00  9.941548727473E+00
    4
V2Bi4O11                                 E -7.6688704831895E+01 DE-4.9E-09(  3)
 O   1.000190741912E+01  9.982149735835E+00  1.012503952322E+01
 H   9.934994864892E+00  1.045269431907E+01  1.098873531909E+01
 H   1.089096558063E+01  9.596230832463E+00  9.944676430213E+00
 H   9.252132135361E+00  9.368925112634E+00  9.941548727473E+00
