    3
Ceria bulk                              
 O   1.001936844732E+01  9.530982384688E+00  1.032280340052E+01
 O   9.814367279034E+00  1.086908490559E+01  1.094901200847E+01
 H   1.088949232191E+01  9.680324650923E+00  9.907224610042E+00
    3
Ceria bulk                               E -1.5087800715142E+02 DE-2.3E-09( 11)
 O   1.000571867991E+01  9.569610840213E+00  1.034508411066E+01
 O   9.836906418251E+00  1.081100453449E+01  1.091441564644E+01
 H   1.088060295010E+01  9.699776566495E+00  9.919540261934E+00
    3
Ceria bulk                               E -1.5088498979635E+02 DE-1.6E-09(  8)
 O   1.001802482146E+01  9.596746070808E+00  1.034883287124E+01
 O   9.811345294591E+00  1.081901556820E+01  1.093139339162E+01
 H   1.089385793221E+01  9.664630302193E+00  9.898813756172E+00
    3
Ceria bulk                               E -1.5088552243069E+02 DE-2.0E-09(  7)
 O   1.001560402889E+01  9.589206521591E+00  1.034724846530E+01
 O   9.817351193848E+00  1.081814054514E+01  1.092779175411E+01
 H   1.089027282553E+01  9.673044874468E+00  9.903999799618E+00
    3
Ceria bulk                               E -1.5088558658306E+02 DE-4.0E-09(  6)
 O   1.001549850644E+01  9.589672383434E+00  1.034748504624E+01
 O   9.817492862207E+00  1.081759221247E+01  1.092750379678E+01
 H   1.089023667962E+01  9.673127345298E+00  9.904051176013E+00
    3
Ceria bulk                               E -1.5088558704035E+02 DE-1.1E-09(  5)
 O   1.001554548977E+01  9.589619252031E+00  1.034743906499E+01
 O   9.817391457486E+00  1.081775386195E+01  1.092762110989E+01
 H   1.089029110100E+01  9.673018827222E+00  9.903979844149E+00
    3
Ceria bulk                               E -1.5088558637630E+02 DE-1.3E-08(  3)
 O   1.001554548977E+01  9.589619252031E+00  1.034743906499E+01
 O   9.817391457486E+00  1.081775386195E+01  1.092762110989E+01
 H   1.089029110100E+01  9.673018827222E+00  9.903979844149E+00
