   82
CERIA BULK                              
 O  -1.875184217206E+00  1.085076732450E+00  4.060544183066E+00
 O  -3.756687906313E+00  4.350304017803E+00  4.057719582344E+00
 O   1.048754745700E-02 -2.176523964723E+00  4.057863350531E+00
 O   1.891675191168E+00  1.081607083017E+00  4.057926975361E+00
 O   5.557829475000E-03  4.350657238820E+00  4.057762259899E+00
 O   3.750874711065E+00 -2.163476003588E+00  4.061004383606E+00
 O  -5.642735681513E+00  1.082161579100E+00  4.058250218018E+00
 O  -7.501178806851E+00  4.334364347749E+00  4.451963495951E+00
 O  -3.761294438733E+00 -2.176612919807E+00  4.057972543055E+00
 CE  1.879594614225E+00 -1.083540705140E+00  3.255082376605E+00
 CE  1.373466150001E-04  2.167434041349E+00  3.262518536576E+00
 CE  3.750740579966E+00 -4.325123007217E+00  3.254763933763E+00
 CE  5.621768001598E+00 -1.083704623414E+00  3.255005971734E+00
 CE  3.750859654173E+00  2.095052291405E+00  3.242174979787E+00
 CE  7.438397469186E+00 -4.293948649415E+00  3.243015706496E+00
 CE -1.875416890531E+00 -1.081853235161E+00  3.262247574634E+00
 CE -3.750930743782E+00  2.167601707237E+00  3.262682693269E+00
 CE  6.299011552200E-02 -4.293762655334E+00  3.242341833985E+00
 O  -2.532249899000E-03  3.176472131000E-03  2.447387699439E+00
 O  -1.875404468962E+00  3.248110473018E+00  2.448020080545E+00
 O   1.886122613240E+00 -3.240595145547E+00  2.429370047493E+00
 O   3.750874367637E+00 -1.041360331700E-02  2.429148890622E+00
 O   1.952510423063E+00  3.294954311487E+00  2.487092761854E+00
 O   5.615535714680E+00 -3.240627154507E+00  2.429169363726E+00
 O  -3.748415797827E+00  3.390288965000E-03  2.447821372160E+00
 O  -5.703146500689E+00  3.294753603186E+00  2.486267297602E+00
 O  -1.875483542568E+00 -3.337145853963E+00  2.486100986703E+00
 O   1.872408048687E+00 -1.080070201200E+00  8.859868895830E-01
 O   2.574573145200E-02  2.182191601454E+00  9.224980455240E-01
 O   3.750669108260E+00 -4.334224254902E+00  8.860543632910E-01
 O   5.629138670591E+00 -1.080037729891E+00  8.859436489830E-01
 O   3.750527729777E+00  2.147989951744E+00  8.895117036170E-01
 O   7.484881390079E+00 -4.321524648320E+00  8.894798432320E-01
 O  -1.875567689280E+00 -1.112025608539E+00  9.221810826490E-01
 O  -3.776274229378E+00  2.182081811230E+00  9.223264985750E-01
 O   1.661498140000E-02 -4.321230760979E+00  8.896161984660E-01
 CE  3.074748859000E-03 -7.288133190000E-04  5.585310109600E-02
 CE -1.875354031480E+00  3.253415362791E+00  5.583463301300E-02
 CE  1.877497441366E+00 -3.246612868427E+00  3.326389736400E-02
 CE  3.750655974193E+00 -1.540205854000E-03  3.331082786600E-02
 CE  1.878458483256E+00  3.251767244340E+00  5.223791273500E-02
 CE  5.623950036340E+00 -3.246632052211E+00  3.349294818200E-02
 CE -3.753797021171E+00 -6.987250770000E-04  5.584620880600E-02
 CE -5.629148347773E+00  3.251706196561E+00  5.214056711200E-02
 CE -1.875435191510E+00 -3.251326095061E+00  5.196204080200E-02
 O  -1.875278439986E+00  1.084241371902E+00 -7.185774768600E-01
 O  -3.750352925232E+00  4.326074915990E+00 -7.442121685230E-01
 O  -5.793281991000E-03 -2.160753145151E+00 -7.440799057610E-01
 O   1.869050953917E+00  1.087395531645E+00 -7.440777325240E-01
 O  -3.992169730000E-04  4.326014939204E+00 -7.441718400780E-01
 O   3.750724948651E+00 -2.164699696377E+00 -7.516694874790E-01
 O  -5.619902113514E+00  1.087468197931E+00 -7.439766807310E-01
 O  -7.501380086134E+00  4.333122034966E+00 -7.341208204490E-01
 O  -3.744986252973E+00 -2.160839405126E+00 -7.440691311510E-01
 O   0.000000000000E+00  0.000000000000E+00 -2.343480358560E+00
 O  -1.875362142603E+00  3.248866908934E+00 -2.343480358560E+00
 O   1.875362142608E+00 -3.248866908929E+00 -2.343480358560E+00
 O   3.750724673724E+00  1.837090000000E-07 -2.343480358560E+00
 O   1.875362531116E+00  3.248867092647E+00 -2.343480358560E+00
 O   5.626086816342E+00 -3.248866725219E+00 -2.343480358560E+00
 O  -3.750724673724E+00 -1.837180000000E-07 -2.343480358560E+00
 O  -5.626086816342E+00  3.248866725219E+00 -2.343480358560E+00
 O  -1.875362531121E+00 -3.248867092643E+00 -2.343480358560E+00
 CE -1.875362272111E+00  1.082955575072E+00 -3.124640478080E+00
 CE -3.750724414709E+00  4.331822484011E+00 -3.124640478080E+00
 CE -1.295030001882E-07 -2.165911333858E+00 -3.124640478080E+00
 CE  1.875362401614E+00  1.082955758786E+00 -3.124640478080E+00
 CE  2.590080001617E-07  4.331822667721E+00 -3.124640478080E+00
 CE  3.750724544222E+00 -2.165911150146E+00 -3.124640478080E+00
 CE -5.626086945877E+00  1.082955391347E+00 -3.124640478080E+00
 CE -7.501449088440E+00  4.331822300302E+00 -3.124640478080E+00
 CE -3.750724803230E+00 -2.165911517574E+00 -3.124640478080E+00
 O   1.875362272111E+00 -1.082955575072E+00 -3.905800597599E+00
 O   1.295030001882E-07  2.165911333858E+00 -3.905800597599E+00
 O   3.750724414709E+00 -4.331822484011E+00 -3.905800597599E+00
 O   5.626086945877E+00 -1.082955391347E+00 -3.905800597599E+00
 O   3.750724803234E+00  2.165911517575E+00 -3.905800597599E+00
 O   7.501449088440E+00 -4.331822300302E+00 -3.905800597599E+00
 O  -1.875362401614E+00 -1.082955758786E+00 -3.905800597599E+00
 O  -3.750724544224E+00  2.165911150146E+00 -3.905800597599E+00
 O  -2.590089998597E-07 -4.331822667721E+00 -3.905800597599E+00
 H   3.751749132494E+00  4.334257553800E+00  5.425367759932E+00
   82
CERIA BULK                              
 O  -1.875184217206E+00  1.085076732450E+00  4.060544183066E+00
 O  -3.756687906313E+00  4.350304017803E+00  4.057719582344E+00
 O   1.048754745732E-02 -2.176523964723E+00  4.057863350531E+00
 O   1.891675191168E+00  1.081607083017E+00  4.057926975361E+00
 O   5.557829474706E-03  4.350657238820E+00  4.057762259899E+00
 O   3.750874711066E+00 -2.163476003588E+00  4.061004383606E+00
 O  -5.642735681513E+00  1.082161579100E+00  4.058250218018E+00
 O  -7.501178806851E+00  4.334364347749E+00  4.451963495951E+00
 O  -3.761294438733E+00 -2.176612919807E+00  4.057972543055E+00
 CE  1.879594614225E+00 -1.083540705140E+00  3.255082376605E+00
 CE  1.373466148932E-04  2.167434041349E+00  3.262518536576E+00
 CE  3.750740579966E+00 -4.325123007217E+00  3.254763933763E+00
 CE  5.621768001598E+00 -1.083704623414E+00  3.255005971734E+00
 CE  3.750859654173E+00  2.095052291405E+00  3.242174979787E+00
 CE  7.438397469186E+00 -4.293948649415E+00  3.243015706496E+00
 CE -1.875416890531E+00 -1.081853235161E+00  3.262247574634E+00
 CE -3.750930743782E+00  2.167601707237E+00  3.262682693269E+00
 CE  6.299011552179E-02 -4.293762655334E+00  3.242341833985E+00
 O  -2.532249899047E-03  3.176472130960E-03  2.447387699439E+00
 O  -1.875404468962E+00  3.248110473018E+00  2.448020080545E+00
 O   1.886122613240E+00 -3.240595145547E+00  2.429370047493E+00
 O   3.750874367637E+00 -1.041360331750E-02  2.429148890622E+00
 O   1.952510423063E+00  3.294954311487E+00  2.487092761854E+00
 O   5.615535714680E+00 -3.240627154507E+00  2.429169363726E+00
 O  -3.748415797827E+00  3.390288964822E-03  2.447821372160E+00
 O  -5.703146500689E+00  3.294753603186E+00  2.486267297602E+00
 O  -1.875483542568E+00 -3.337145853963E+00  2.486100986703E+00
 O   1.872408048687E+00 -1.080070201200E+00  8.859868895834E-01
 O   2.574573145233E-02  2.182191601454E+00  9.224980455239E-01
 O   3.750669108260E+00 -4.334224254902E+00  8.860543632909E-01
 O   5.629138670591E+00 -1.080037729891E+00  8.859436489826E-01
 O   3.750527729777E+00  2.147989951744E+00  8.895117036173E-01
 O   7.484881390078E+00 -4.321524648320E+00  8.894798432323E-01
 O  -1.875567689280E+00 -1.112025608539E+00  9.221810826488E-01
 O  -3.776274229378E+00  2.182081811230E+00  9.223264985748E-01
 O   1.661498140042E-02 -4.321230760979E+00  8.896161984663E-01
 CE  3.074748859245E-03 -7.288133191066E-04  5.585310109571E-02
 CE -1.875354031480E+00  3.253415362791E+00  5.583463301318E-02
 CE  1.877497441366E+00 -3.246612868427E+00  3.326389736377E-02
 CE  3.750655974193E+00 -1.540205853532E-03  3.331082786631E-02
 CE  1.878458483256E+00  3.251767244340E+00  5.223791273505E-02
 CE  5.623950036340E+00 -3.246632052211E+00  3.349294818181E-02
 CE -3.753797021171E+00 -6.987250769486E-04  5.584620880594E-02
 CE -5.629148347773E+00  3.251706196561E+00  5.214056711174E-02
 CE -1.875435191510E+00 -3.251326095061E+00  5.196204080166E-02
 O  -1.875278439986E+00  1.084241371902E+00 -7.185774768603E-01
 O  -3.750352925232E+00  4.326074915990E+00 -7.442121685226E-01
 O  -5.793281991480E-03 -2.160753145151E+00 -7.440799057613E-01
 O   1.869050953917E+00  1.087395531645E+00 -7.440777325240E-01
 O  -3.992169729671E-04  4.326014939204E+00 -7.441718400779E-01
 O   3.750724948651E+00 -2.164699696377E+00 -7.516694874792E-01
 O  -5.619902113514E+00  1.087468197931E+00 -7.439766807307E-01
 O  -7.501380086134E+00  4.333122034966E+00 -7.341208204489E-01
 O  -3.744986252973E+00 -2.160839405126E+00 -7.440691311509E-01
 O   0.000000000000E+00  0.000000000000E+00 -2.343480358560E+00
 O  -1.875362142603E+00  3.248866908934E+00 -2.343480358560E+00
 O   1.875362142608E+00 -3.248866908929E+00 -2.343480358560E+00
 O   3.750724673724E+00  1.837094791037E-07 -2.343480358560E+00
 O   1.875362531116E+00  3.248867092647E+00 -2.343480358560E+00
 O   5.626086816341E+00 -3.248866725219E+00 -2.343480358560E+00
 O  -3.750724673724E+00 -1.837184881501E-07 -2.343480358560E+00
 O  -5.626086816341E+00  3.248866725219E+00 -2.343480358560E+00
 O  -1.875362531121E+00 -3.248867092643E+00 -2.343480358560E+00
 CE -1.875362272111E+00  1.082955575072E+00 -3.124640478080E+00
 CE -3.750724414709E+00  4.331822484011E+00 -3.124640478080E+00
 CE -1.295032162541E-07 -2.165911333858E+00 -3.124640478080E+00
 CE  1.875362401614E+00  1.082955758786E+00 -3.124640478080E+00
 CE  2.590084337455E-07  4.331822667721E+00 -3.124640478080E+00
 CE  3.750724544222E+00 -2.165911150146E+00 -3.124640478080E+00
 CE -5.626086945877E+00  1.082955391347E+00 -3.124640478080E+00
 CE -7.501449088440E+00  4.331822300302E+00 -3.124640478080E+00
 CE -3.750724803230E+00 -2.165911517574E+00 -3.124640478080E+00
 O   1.875362272111E+00 -1.082955575072E+00 -3.905800597599E+00
 O   1.295032162541E-07  2.165911333858E+00 -3.905800597599E+00
 O   3.750724414709E+00 -4.331822484011E+00 -3.905800597599E+00
 O   5.626086945877E+00 -1.082955391347E+00 -3.905800597599E+00
 O   3.750724803234E+00  2.165911517575E+00 -3.905800597599E+00
 O   7.501449088440E+00 -4.331822300302E+00 -3.905800597599E+00
 O  -1.875362401614E+00 -1.082955758786E+00 -3.905800597599E+00
 O  -3.750724544224E+00  2.165911150146E+00 -3.905800597599E+00
 O  -2.590094348917E-07 -4.331822667721E+00 -3.905800597599E+00
 H   3.751749132494E+00  4.334257553800E+00  5.425367759932E+00
   82
CERIA BULK                               E -1.6895772989852E+04 DE-2.4E-08(  6)
 O  -1.875183563151E+00  1.085076092759E+00  4.060546826827E+00
 O  -3.756685914751E+00  4.350302026407E+00  4.057716483715E+00
 O   1.048808077444E-02 -2.176523418171E+00  4.057860767531E+00
 O   1.891675223018E+00  1.081608378009E+00  4.057924201369E+00
 O   5.559222902742E-03  4.350653826247E+00  4.057758820507E+00
 O   3.750872261284E+00 -2.163474482891E+00  4.061001900994E+00
 O  -5.642732703361E+00  1.082161012258E+00  4.058246474012E+00
 O  -7.501174540119E+00  4.334362011558E+00  4.451964332671E+00
 O  -3.761292845208E+00 -2.176612142929E+00  4.057969493680E+00
 CE  1.879592464475E+00 -1.083539538856E+00  3.255082187616E+00
 CE  1.384136147461E-04  2.167434251292E+00  3.262519500682E+00
 CE  3.750739028238E+00 -4.325123143577E+00  3.254763983234E+00
 CE  5.621766867108E+00 -1.083702701747E+00  3.255007057697E+00
 CE  3.750856587813E+00  2.095046180209E+00  3.242170384659E+00
 CE  7.438389816470E+00 -4.293943522627E+00  3.243008875992E+00
 CE -1.875415870073E+00 -1.081852597133E+00  3.262248362207E+00
 CE -3.750929121815E+00  2.167600829701E+00  3.262682753414E+00
 CE  6.299297964354E-02 -4.293759112807E+00  3.242337378703E+00
 O  -2.533891527982E-03  3.178178887832E-03  2.447389336888E+00
 O  -1.875403375503E+00  3.248106551748E+00  2.448021096241E+00
 O   1.886123291998E+00 -3.240593078899E+00  2.429370583386E+00
 O   3.750871738772E+00 -1.041573890114E-02  2.429149070483E+00
 O   1.952510339343E+00  3.294952963282E+00  2.487089794779E+00
 O   5.615529808070E+00 -3.240625120798E+00  2.429170485993E+00
 O  -3.748411767524E+00  3.391396892450E-03  2.447821873127E+00
 O  -5.703144065904E+00  3.294752210841E+00  2.486267996612E+00
 O  -1.875482631130E+00 -3.337144636523E+00  2.486101930193E+00
 O   1.872405540532E+00 -1.080069110731E+00  8.859875002731E-01
 O   2.574758897824E-02  2.182191838588E+00  9.224996750474E-01
 O   3.750667282214E+00 -4.334223299394E+00  8.860543783364E-01
 O   5.629136676547E+00 -1.080036748165E+00  8.859445771409E-01
 O   3.750526226886E+00  2.147984937295E+00  8.895106839508E-01
 O   7.484874159499E+00 -4.321519543864E+00  8.894789980077E-01
 O  -1.875565941591E+00 -1.112028070890E+00  9.221833312562E-01
 O  -3.776274358265E+00  2.182082151371E+00  9.223280797323E-01
 O   1.661745928298E-02 -4.321226665292E+00  8.896152017897E-01
 CE  3.072302902076E-03 -7.271564926048E-04  5.585427315013E-02
 CE -1.875352875868E+00  3.253411219228E+00  5.583589744668E-02
 CE  1.877494725099E+00 -3.246612469273E+00  3.326326438994E-02
 CE  3.750654095538E+00 -1.537866837391E-03  3.330939461307E-02
 CE  1.878456158285E+00  3.251763963511E+00  5.224143416665E-02
 CE  5.623948285616E+00 -3.246631438148E+00  3.349039776991E-02
 CE -3.753792771666E+00 -6.974585139996E-04  5.584668293723E-02
 CE -5.629143952502E+00  3.251703623067E+00  5.214448737300E-02
 CE -1.875433963549E+00 -3.251322300131E+00  5.196469691674E-02
 O  -1.875277783776E+00  1.084240308557E+00 -7.185754325123E-01
 O  -3.750349942697E+00  4.326070475044E+00 -7.442119546480E-01
 O  -5.794028174584E-03 -2.160750408029E+00 -7.440800905149E-01
 O   1.869047648694E+00  1.087394527544E+00 -7.440774437368E-01
 O  -4.001036336953E-04  4.326010561595E+00 -7.441714706067E-01
 O   3.750722731323E+00 -2.164698498181E+00 -7.516664781961E-01
 O  -5.619896604956E+00  1.087467105367E+00 -7.439767176260E-01
 O  -7.501375919998E+00  4.333119850954E+00 -7.341159177911E-01
 O  -3.744983155444E+00 -2.160836546402E+00 -7.440694133454E-01
 O   0.000000000000E+00  0.000000000000E+00 -2.343480358560E+00
 O  -1.875361081098E+00  3.248865148523E+00 -2.343480358560E+00
 O   1.875361081103E+00 -3.248865148518E+00 -2.343480358560E+00
 O   3.750722543580E+00  1.795913234612E-07 -2.343480358560E+00
 O   1.875361462476E+00  3.248865328119E+00 -2.343480358560E+00
 O   5.626083624691E+00 -3.248864968927E+00 -2.343480358560E+00
 O  -3.750722543580E+00 -1.796003325028E-07 -2.343480358560E+00
 O  -5.626083624691E+00  3.248864968927E+00 -2.343480358560E+00
 O  -1.875361462481E+00 -3.248865328115E+00 -2.343480358560E+00
 CE -1.875361208227E+00  1.082954989641E+00 -3.124640478080E+00
 CE -3.750722289320E+00  4.331820138170E+00 -3.124640478080E+00
 CE -1.271251104847E-07 -2.165910158878E+00 -3.124640478080E+00
 CE  1.875361335352E+00  1.082955169237E+00 -3.124640478080E+00
 CE  2.542522222054E-07  4.331820317762E+00 -3.124640478080E+00
 CE  3.750722416455E+00 -2.165909979285E+00 -3.124640478080E+00
 CE -5.626083751849E+00  1.082954810034E+00 -3.124640478080E+00
 CE -7.501444832907E+00  4.331819958579E+00 -3.124640478080E+00
 CE -3.750722670708E+00 -2.165910338476E+00 -3.124640478080E+00
 O   1.875361208227E+00 -1.082954989641E+00 -3.905800597599E+00
 O   1.271251104847E-07  2.165910158878E+00 -3.905800597599E+00
 O   3.750722289320E+00 -4.331820138170E+00 -3.905800597599E+00
 O   5.626083751849E+00 -1.082954810034E+00 -3.905800597599E+00
 O   3.750722670712E+00  2.165910338477E+00 -3.905800597599E+00
 O   7.501444832907E+00 -4.331819958579E+00 -3.905800597599E+00
 O  -1.875361335352E+00 -1.082955169237E+00 -3.905800597599E+00
 O  -3.750722416457E+00  2.165909979285E+00 -3.905800597599E+00
 O  -2.542532233511E-07 -4.331820317762E+00 -3.905800597599E+00
 H   3.751746065961E+00  4.334254361850E+00  5.425367421510E+00
   82
CERIA BULK                               E -1.6895772989918E+04 DE-3.1E-08(  3)
 O  -1.875183563151E+00  1.085076092759E+00  4.060546826827E+00
 O  -3.756685914751E+00  4.350302026407E+00  4.057716483715E+00
 O   1.048808077444E-02 -2.176523418171E+00  4.057860767531E+00
 O   1.891675223018E+00  1.081608378009E+00  4.057924201369E+00
 O   5.559222902742E-03  4.350653826247E+00  4.057758820507E+00
 O   3.750872261284E+00 -2.163474482891E+00  4.061001900994E+00
 O  -5.642732703361E+00  1.082161012258E+00  4.058246474012E+00
 O  -7.501174540119E+00  4.334362011558E+00  4.451964332671E+00
 O  -3.761292845208E+00 -2.176612142929E+00  4.057969493680E+00
 CE  1.879592464475E+00 -1.083539538856E+00  3.255082187616E+00
 CE  1.384136147461E-04  2.167434251292E+00  3.262519500682E+00
 CE  3.750739028238E+00 -4.325123143577E+00  3.254763983234E+00
 CE  5.621766867108E+00 -1.083702701747E+00  3.255007057697E+00
 CE  3.750856587813E+00  2.095046180209E+00  3.242170384659E+00
 CE  7.438389816470E+00 -4.293943522627E+00  3.243008875992E+00
 CE -1.875415870073E+00 -1.081852597133E+00  3.262248362207E+00
 CE -3.750929121815E+00  2.167600829701E+00  3.262682753414E+00
 CE  6.299297964354E-02 -4.293759112807E+00  3.242337378703E+00
 O  -2.533891527982E-03  3.178178887832E-03  2.447389336888E+00
 O  -1.875403375503E+00  3.248106551748E+00  2.448021096241E+00
 O   1.886123291998E+00 -3.240593078899E+00  2.429370583386E+00
 O   3.750871738772E+00 -1.041573890114E-02  2.429149070483E+00
 O   1.952510339343E+00  3.294952963282E+00  2.487089794779E+00
 O   5.615529808070E+00 -3.240625120798E+00  2.429170485993E+00
 O  -3.748411767524E+00  3.391396892450E-03  2.447821873127E+00
 O  -5.703144065904E+00  3.294752210841E+00  2.486267996612E+00
 O  -1.875482631130E+00 -3.337144636523E+00  2.486101930193E+00
 O   1.872405540532E+00 -1.080069110731E+00  8.859875002731E-01
 O   2.574758897824E-02  2.182191838588E+00  9.224996750474E-01
 O   3.750667282214E+00 -4.334223299394E+00  8.860543783364E-01
 O   5.629136676547E+00 -1.080036748165E+00  8.859445771409E-01
 O   3.750526226886E+00  2.147984937295E+00  8.895106839508E-01
 O   7.484874159499E+00 -4.321519543864E+00  8.894789980077E-01
 O  -1.875565941591E+00 -1.112028070890E+00  9.221833312562E-01
 O  -3.776274358265E+00  2.182082151371E+00  9.223280797323E-01
 O   1.661745928298E-02 -4.321226665292E+00  8.896152017897E-01
 CE  3.072302902076E-03 -7.271564926048E-04  5.585427315013E-02
 CE -1.875352875868E+00  3.253411219228E+00  5.583589744668E-02
 CE  1.877494725099E+00 -3.246612469273E+00  3.326326438994E-02
 CE  3.750654095538E+00 -1.537866837391E-03  3.330939461307E-02
 CE  1.878456158285E+00  3.251763963511E+00  5.224143416665E-02
 CE  5.623948285616E+00 -3.246631438148E+00  3.349039776991E-02
 CE -3.753792771666E+00 -6.974585139996E-04  5.584668293723E-02
 CE -5.629143952502E+00  3.251703623067E+00  5.214448737300E-02
 CE -1.875433963549E+00 -3.251322300131E+00  5.196469691674E-02
 O  -1.875277783776E+00  1.084240308557E+00 -7.185754325123E-01
 O  -3.750349942697E+00  4.326070475044E+00 -7.442119546480E-01
 O  -5.794028174584E-03 -2.160750408029E+00 -7.440800905149E-01
 O   1.869047648694E+00  1.087394527544E+00 -7.440774437368E-01
 O  -4.001036336953E-04  4.326010561595E+00 -7.441714706067E-01
 O   3.750722731323E+00 -2.164698498181E+00 -7.516664781961E-01
 O  -5.619896604956E+00  1.087467105367E+00 -7.439767176260E-01
 O  -7.501375919998E+00  4.333119850954E+00 -7.341159177911E-01
 O  -3.744983155444E+00 -2.160836546402E+00 -7.440694133454E-01
 O   0.000000000000E+00  0.000000000000E+00 -2.343480358560E+00
 O  -1.875361081098E+00  3.248865148523E+00 -2.343480358560E+00
 O   1.875361081103E+00 -3.248865148518E+00 -2.343480358560E+00
 O   3.750722543580E+00  1.795913234612E-07 -2.343480358560E+00
 O   1.875361462476E+00  3.248865328119E+00 -2.343480358560E+00
 O   5.626083624691E+00 -3.248864968927E+00 -2.343480358560E+00
 O  -3.750722543580E+00 -1.796003325028E-07 -2.343480358560E+00
 O  -5.626083624691E+00  3.248864968927E+00 -2.343480358560E+00
 O  -1.875361462481E+00 -3.248865328115E+00 -2.343480358560E+00
 CE -1.875361208227E+00  1.082954989641E+00 -3.124640478080E+00
 CE -3.750722289320E+00  4.331820138170E+00 -3.124640478080E+00
 CE -1.271251104847E-07 -2.165910158878E+00 -3.124640478080E+00
 CE  1.875361335352E+00  1.082955169237E+00 -3.124640478080E+00
 CE  2.542522222054E-07  4.331820317762E+00 -3.124640478080E+00
 CE  3.750722416455E+00 -2.165909979285E+00 -3.124640478080E+00
 CE -5.626083751849E+00  1.082954810034E+00 -3.124640478080E+00
 CE -7.501444832907E+00  4.331819958579E+00 -3.124640478080E+00
 CE -3.750722670708E+00 -2.165910338476E+00 -3.124640478080E+00
 O   1.875361208227E+00 -1.082954989641E+00 -3.905800597599E+00
 O   1.271251104847E-07  2.165910158878E+00 -3.905800597599E+00
 O   3.750722289320E+00 -4.331820138170E+00 -3.905800597599E+00
 O   5.626083751849E+00 -1.082954810034E+00 -3.905800597599E+00
 O   3.750722670712E+00  2.165910338477E+00 -3.905800597599E+00
 O   7.501444832907E+00 -4.331819958579E+00 -3.905800597599E+00
 O  -1.875361335352E+00 -1.082955169237E+00 -3.905800597599E+00
 O  -3.750722416457E+00  2.165909979285E+00 -3.905800597599E+00
 O  -2.542532233511E-07 -4.331820317762E+00 -3.905800597599E+00
 H   3.751746065961E+00  4.334254361850E+00  5.425367421510E+00
