    2
Ceria bulk                              
 O   1.000000000000E+01  1.000000000000E+01  1.000000000000E+01
 O   9.940000000000E+00  1.040000000000E+01  1.100000000000E+01
    2
Ceria bulk                               E -1.5016144897985E+02 DE-2.1E-10( 10)
 O   1.000652108051E+01  9.956526129957E+00  9.891315324891E+00
 O   9.933478919493E+00  1.044347387004E+01  1.110868467511E+01
    2
Ceria bulk                               E -1.5028929744691E+02 DE-8.6E-11(  8)
 O   1.000738535529E+01  9.950764298049E+00  9.876910745122E+00
 O   9.932614644707E+00  1.044923570195E+01  1.112308925488E+01
    2
Ceria bulk                               E -1.5029261977289E+02 DE-1.6E-08(  6)
 O   1.000786991570E+01  9.947533895310E+00  9.868834738276E+00
 O   9.932130084297E+00  1.045246610469E+01  1.113116526172E+01
    2
Ceria bulk                               E -1.5029370085128E+02 DE-3.1E-09(  6)
 O   1.000865003070E+01  9.942333128660E+00  9.855832821650E+00
 O   9.931349969299E+00  1.045766687134E+01  1.114416717835E+01
    2
Ceria bulk                               E -1.5029443341649E+02 DE-5.0E-09(  6)
 O   1.000875918870E+01  9.941605408685E+00  9.854013521712E+00
 O   9.931240811303E+00  1.045839459132E+01  1.114598647829E+01
    2
Ceria bulk                               E -1.5029444584857E+02 DE-2.6E-10(  6)
 O   1.000876998287E+01  9.941533447500E+00  9.853833618751E+00
 O   9.931230017125E+00  1.045846655250E+01  1.114616638125E+01
    2
Ceria bulk                               E -1.5029444595148E+02 DE-1.2E-08(  3)
 O   1.000877022414E+01  9.941531839067E+00  9.853829597668E+00
 O   9.931229775860E+00  1.045846816093E+01  1.114617040233E+01
    2
Ceria bulk                               E -1.5029444595848E+02 DE-9.0E-10(  3)
 O   1.000877022414E+01  9.941531839067E+00  9.853829597668E+00
 O   9.931229775860E+00  1.045846816093E+01  1.114617040233E+01
