  110
Ceria bulk                              
 O  -1.827413383404E+00  1.083333143197E+00  4.041773041436E+00
 O   1.315774128113E+01  5.424361747250E+00  8.556211021640E-01
 O   1.703907807931E+01  5.442735573705E+00  8.908767133960E-01
 O   1.829023192173E+00  1.101496942947E+00  3.947109018582E+00
 O   1.130904352297E+01  4.314230902116E+00  4.005386784358E+00
 O  -5.709343541492E+00  1.208675462268E+00  4.206623625804E+00
 O   1.321733390319E+01  3.260384788528E+00  2.404290595550E+00
 O   1.123494819477E+01  6.508123893300E+00  2.422955610207E+00
 CE  1.786923352704E+00 -9.920671409340E-01  3.145524820477E+00
 CE -8.585965859000E-03  2.171950890184E+00  3.239124356210E+00
 CE  3.857810095075E+00 -4.510253242373E+00  3.190774362804E+00
 CE  5.764242105091E+00 -1.099466775480E+00  3.177732967174E+00
 CE  3.724906337754E+00  2.207744117479E+00  3.287239546126E+00
 CE  7.572606408825E+00 -4.389654484108E+00  3.188501918463E+00
 CE -1.884923333940E+00 -1.059339336146E+00  3.238307031979E+00
 CE -3.771422142638E+00  2.216566478684E+00  3.301232891178E+00
 CE  5.223771232400E-02 -4.325256101227E+00  3.292306599150E+00
 O  -2.602347528600E-02  3.429974348000E-02  2.340636538925E+00
 O  -1.888173989970E+00  3.243172016396E+00  2.398136670149E+00
 O   1.901554406056E+01  4.221845154283E+00  4.159304687909E+00
 O   3.747558418573E+00 -1.063263384230E-01  2.518863210966E+00
 O   1.497686775426E+01  4.350549729706E+00  4.129077263832E+00
 O   1.695588248229E+01  3.177891018572E+00  2.476926488311E+00
 O  -3.748504141528E+00  8.050430259200E-02  2.421251413479E+00
 O   1.695183695801E+01  7.739653504195E+00  4.034426859804E+00
 O   1.326084444905E+01  7.617203082609E+00  4.081592839593E+00
 O   1.856678827008E+00 -1.096540335375E+00  8.264789230930E-01
 O   9.757554982000E-03  2.205660665129E+00  8.330435370750E-01
 O   3.780849176445E+00 -4.426340872397E+00  8.397641469330E-01
 O   5.686167094972E+00 -1.102710510387E+00  8.113509987470E-01
 O   3.768195373924E+00  2.136766727694E+00  9.025038686770E-01
 O   1.909521657633E+01  6.612962472024E+00  2.610188761707E+00
 O  -1.893350833748E+00 -1.077984788034E+00  8.332969431590E-01
 O  -3.785437937156E+00  2.222059136666E+00  8.523447472290E-01
 O   1.503660930237E+01  6.516753081898E+00  2.395355189136E+00
 CE -1.003658142800E-02  1.264390119200E-02  4.196424921000E-03
 CE -1.893455466133E+00  3.277599491118E+00  2.010694414900E-02
 CE  1.915539734510E+00 -3.285062387253E+00  2.945000324500E-02
 CE  3.780814469430E+00 -5.633700861000E-03  5.076022139700E-02
 CE  1.882756166736E+00  3.267209278262E+00  4.164412764900E-02
 CE  5.672110590014E+00 -3.295827411079E+00  2.349555304500E-02
 CE -3.763553335379E+00  2.940772998700E-02  2.277552879900E-02
 CE -5.650570920947E+00  3.297692389599E+00  7.663164048500E-02
 CE -1.858908571427E+00 -3.257057800162E+00  5.246785227900E-02
 O  -1.887031405599E+00  1.108036536712E+00 -7.886980150950E-01
 O  -3.783323988248E+00  4.385021488431E+00 -7.874519509150E-01
 O   1.001521153200E-02 -2.184567032591E+00 -7.833086177060E-01
 O   1.895225080085E+00  1.094414506629E+00 -7.767229617870E-01
 O  -2.584034871000E-03  4.372389414007E+00 -7.896925894330E-01
 O   3.779932829977E+00 -2.199300348584E+00 -7.638067531510E-01
 O  -5.657853422055E+00  1.129919675377E+00 -7.728115646380E-01
 O  -7.532271344380E+00  4.398147219898E+00 -7.355637890830E-01
 O  -3.749877191742E+00 -2.174532418651E+00 -7.817761588250E-01
 O   0.000000000000E+00  0.000000000000E+00 -2.343480358560E+00
 O  -1.896337186874E+00  3.282339753417E+00 -2.343480358560E+00
 O   1.896337186879E+00 -3.282339753412E+00 -2.343480358560E+00
 O   3.769757164873E+00 -1.319120922200E-02 -2.343480358560E+00
 O   1.873419977993E+00  3.269148544201E+00 -2.343480358560E+00
 O   5.666094351761E+00 -3.295530962635E+00 -2.343480358560E+00
 O  -3.769757164873E+00  1.319120921200E-02 -2.343480358560E+00
 O  -5.666094351761E+00  3.295530962635E+00 -2.343480358560E+00
 O  -1.873419977998E+00 -3.269148544196E+00 -2.343480358560E+00
 CE -1.888698117250E+00  1.098510320877E+00 -3.124640478080E+00
 CE -3.785035304119E+00  4.380850074300E+00 -3.124640478080E+00
 CE  7.639069628000E-03 -2.183829432537E+00 -3.124640478080E+00
 CE  1.881059047622E+00  1.085319111660E+00 -3.124640478080E+00
 CE -1.527813925400E-02  4.367658865078E+00 -3.124640478080E+00
 CE  3.777396234501E+00 -2.197020641756E+00 -3.124640478080E+00
 CE -5.658455282164E+00  1.111701530081E+00 -3.124640478080E+00
 CE -7.554792468998E+00  4.394041283521E+00 -3.124640478080E+00
 CE -3.762118095247E+00 -2.170638223323E+00 -3.124640478080E+00
 O   1.888698117250E+00 -1.098510320877E+00 -3.905800597599E+00
 O  -7.639069628000E-03  2.183829432537E+00 -3.905800597599E+00
 O   3.785035304119E+00 -4.380850074300E+00 -3.905800597599E+00
 O   5.658455282164E+00 -1.111701530081E+00 -3.905800597599E+00
 O   3.762118095251E+00  2.170638223324E+00 -3.905800597599E+00
 O   7.554792468998E+00 -4.394041283521E+00 -3.905800597599E+00
 O  -1.881059047622E+00 -1.085319111660E+00 -3.905800597599E+00
 O  -3.777396234504E+00  2.197020641755E+00 -3.905800597599E+00
 O   1.527813925300E-02 -4.367658865079E+00 -3.905800597599E+00
 O   7.125643736248E+00 -3.732651589550E+00  5.970923618867E+00
 H   7.476158735763E+00 -2.954956944494E+00  5.427622837201E+00
 O  -7.513486004760E+00  4.816949866840E+00  6.636930528515E+00
 H  -9.042174114330E-01 -4.730958772398E+00  6.783018659325E+00
 H  -7.566695252552E+00  4.683480615538E+00  5.611660215051E+00
 H   1.692184696159E+00 -5.427987838370E-01  5.967389758145E+00
 O   2.361932150376E+00 -1.197768290391E+00  5.688398103775E+00
 H   3.252973704956E+00 -8.019738727450E-01  5.916750657920E+00
 O   4.960830026351E+00 -4.799978707420E-01  5.789857919618E+00
 H   5.302753718039E+00  4.976177525250E-01  5.100496098865E+00
 H   5.616077350219E+00 -5.561313331870E-01  6.502468653298E+00
 O   3.686288513730E-01  2.534218759720E+00  5.886598472970E+00
 H   1.306020111406E+00  2.284109034493E+00  6.011367122810E+00
 H   3.523992404610E-01  3.488830304367E+00  5.648889579725E+00
 O   4.635884109826E+00 -3.124491981168E+00  5.179427713874E+00
 H   5.491783740399E+00 -3.528444870513E+00  5.515702626894E+00
 H   4.593793601020E+00 -2.239572524047E+00  5.623686799457E+00
 H   7.873005501951E+00 -4.195406924702E+00  6.425047959922E+00
 O   8.273237998700E-01 -4.187451956174E+00  5.979210249809E+00
 H   1.488001161902E+00 -4.785975914291E+00  5.509349223295E+00
 H   1.243817185612E+00 -3.311324281023E+00  6.056774167782E+00
 H  -6.700107006940E-01 -1.728796656486E+00  5.531767711397E+00
 O  -1.414621038367E+00 -1.329967810899E+00  6.060904777428E+00
 H  -1.828536196047E+00 -2.057533315318E+00  6.546156602988E+00
 O  -3.422836581399E+00  1.809242056431E+00  5.936385341329E+00
 H  -2.569013754711E+00  1.401513679624E+00  5.626237629057E+00
 H  -3.186378974434E+00  2.684757740536E+00  6.282791850174E+00
 O   3.386806351033E+00  2.178358055002E+00  6.091505738101E+00
 H   3.945809443834E+00  1.483705402390E+00  6.467924417933E+00
 H   3.650230166252E+00  3.048446506896E+00  6.501661174413E+00
