    4
Ceria bulk                              
 O   1.000000000000E+01  1.000000000000E+01  1.000000000000E+01
 H   9.940000000000E+00  1.040000000000E+01  1.100000000000E+01
 H   1.080000000000E+01  9.600000000000E+00  1.000000000000E+01
 H   9.340000000000E+00  9.400000000000E+00  1.000000000000E+01
    4
Ceria bulk                               E -7.6659693451156E+01 DE-6.1E-10(  7)
 O   9.998314664825E+00  1.000873795030E+01  1.008434589709E+01
 H   9.936944120767E+00  1.043864387229E+01  1.099572976265E+01
 H   1.088659211247E+01  9.589245186014E+00  9.961532856916E+00
 H   9.258149101941E+00  9.363372991392E+00  9.958391483343E+00
    4
Ceria bulk                               E -7.6687918379993E+01 DE-3.3E-11(  7)
 O   9.998434593741E+00  1.000788001479E+01  1.010310423831E+01
 H   9.936864951814E+00  1.043868022607E+01  1.098536610925E+01
 H   1.088793980363E+01  9.589797755743E+00  9.957257869164E+00
 H   9.256760650817E+00  9.363642003403E+00  9.954271783276E+00
    4
Ceria bulk                               E -7.6688431627249E+01 DE-1.5E-11(  6)
 O   9.999309047151E+00  1.000128250243E+01  1.010603596753E+01
 H   9.936125191800E+00  1.044461100945E+01  1.099031065343E+01
 H   1.088828473382E+01  9.590242814779E+00  9.953393877514E+00
 H   9.256281027234E+00  9.363863673338E+00  9.950259501524E+00
    4
Ceria bulk                               E -7.6688548446322E+01 DE-7.6E-12(  6)
 O   1.000039581470E+01  9.993253527129E+00  1.011336590930E+01
 H   9.935631875908E+00  1.044847961545E+01  1.099052957228E+01
 H   1.088890083471E+01  9.592475640064E+00  9.949652487944E+00
 H   9.255071474682E+00  9.365791217353E+00  9.946452030470E+00
    4
Ceria bulk                               E -7.6688648963889E+01 DE-2.1E-12(  6)
 O   1.000158245120E+01  9.984592001979E+00  1.012261349910E+01
 H   9.935129154499E+00  1.045181201827E+01  1.098910094959E+01
 H   1.089018673215E+01  9.595341122865E+00  9.945714846126E+00
 H   9.253101662150E+00  9.368254856888E+00  9.942570705193E+00
    4
Ceria bulk                               E -7.6688702628857E+01 DE-1.4E-12(  6)
 O   1.000185810280E+01  9.982534008082E+00  1.012473600033E+01
 H   9.935010113611E+00  1.045257678128E+01  1.098877350276E+01
 H   1.089080368200E+01  9.596073423005E+00  9.944808391598E+00
 H   9.252328101590E+00  9.368815787630E+00  9.941682105305E+00
    4
Ceria bulk                               E -7.6688704796873E+01 DE-1.9E-11(  5)
 O   1.000190742885E+01  9.982149663279E+00  1.012503959586E+01
 H   9.934994865193E+00  1.045269431813E+01  1.098873527769E+01
 H   1.089096554606E+01  9.596230865118E+00  9.944676414595E+00
 H   9.252132159899E+00  9.368925153476E+00  9.941548711852E+00
    4
Ceria bulk                               E -7.6688704845142E+01 DE-4.9E-09(  3)
 O   1.000190742885E+01  9.982149663279E+00  1.012503959586E+01
 H   9.934994865193E+00  1.045269431813E+01  1.098873527769E+01
 H   1.089096554606E+01  9.596230865118E+00  9.944676414595E+00
 H   9.252132159899E+00  9.368925153476E+00  9.941548711852E+00
