   17
V2Bi4O11                                
 O   5.840324140572E+00  1.186857431430E+01  9.395828882785E+00
 H   6.575138017651E+00  1.119030670651E+01  9.344008422765E+00
 O   8.294086878782E+00  7.710430689886E+00  9.958401341458E+00
 H   8.121182849275E+00  8.803481119541E+00  9.832777462976E+00
 H   8.330655616310E+00  7.572057363510E+00  1.091582445499E+01
 O   7.018414534394E+00  1.080264512504E+01  1.215858258411E+01
 H   5.883499569534E+00  1.210805223352E+01  1.033567177244E+01
 H   6.190077275288E+00  1.030245567837E+01  1.216160399992E+01
 O   1.044318771106E+01  6.736892113258E+00  8.902943357942E+00
 H   1.011453126189E+01  6.063494428837E+00  8.291337936087E+00
 H   9.597959493948E+00  7.154810670099E+00  9.317103584050E+00
 H   8.737040377977E+00  1.056997318982E+01  9.529198017475E+00
 O   7.900252886983E+00  1.014078424082E+01  9.757929617310E+00
 H   7.436905815030E+00  1.055882544874E+01  1.126132921998E+01
 H   1.211820538086E+01  6.390627845494E+00  1.148356297161E+01
 O   1.194948245756E+01  5.631276111426E+00  1.090904896221E+01
 H   1.140245766886E+01  6.004760410804E+00  1.016530098079E+01
   17
V2Bi4O11                                
 O   5.840324140572E+00  1.186857431430E+01  9.395828882785E+00
 H   6.575138017651E+00  1.119030670651E+01  9.344008422765E+00
 O   8.294086878782E+00  7.710430689886E+00  9.958401341458E+00
 H   8.121182849276E+00  8.803481119541E+00  9.832777462976E+00
 H   8.330655616310E+00  7.572057363510E+00  1.091582445499E+01
 O   7.018414534394E+00  1.080264512504E+01  1.215858258412E+01
 H   5.883499569535E+00  1.210805223352E+01  1.033567177244E+01
 H   6.190077275288E+00  1.030245567837E+01  1.216160399991E+01
 O   1.044318771106E+01  6.736892113258E+00  8.902943357942E+00
 H   1.011453126189E+01  6.063494428837E+00  8.291337936087E+00
 H   9.597959493948E+00  7.154810670099E+00  9.317103584050E+00
 H   8.737040377977E+00  1.056997318982E+01  9.529198017475E+00
 O   7.900252886983E+00  1.014078424082E+01  9.757929617310E+00
 H   7.436905815029E+00  1.055882544874E+01  1.126132921998E+01
 H   1.211820538086E+01  6.390627845494E+00  1.148356297161E+01
 O   1.194948245756E+01  5.631276111426E+00  1.090904896221E+01
 H   1.140245766886E+01  6.004760410804E+00  1.016530098078E+01
   17
V2Bi4O11                                 E -4.5801558676900E+02 DE-7.8E-11(  2)
 O   5.840324140572E+00  1.186857431430E+01  9.395828882785E+00
 H   6.575138017651E+00  1.119030670651E+01  9.344008422765E+00
 O   8.294086878782E+00  7.710430689886E+00  9.958401341458E+00
 H   8.121182849276E+00  8.803481119541E+00  9.832777462976E+00
 H   8.330655616310E+00  7.572057363510E+00  1.091582445499E+01
 O   7.018414534394E+00  1.080264512504E+01  1.215858258412E+01
 H   5.883499569535E+00  1.210805223352E+01  1.033567177244E+01
 H   6.190077275288E+00  1.030245567837E+01  1.216160399991E+01
 O   1.044318771106E+01  6.736892113258E+00  8.902943357942E+00
 H   1.011453126189E+01  6.063494428837E+00  8.291337936087E+00
 H   9.597959493948E+00  7.154810670099E+00  9.317103584050E+00
 H   8.737040377977E+00  1.056997318982E+01  9.529198017475E+00
 O   7.900252886983E+00  1.014078424082E+01  9.757929617310E+00
 H   7.436905815029E+00  1.055882544874E+01  1.126132921998E+01
 H   1.211820538086E+01  6.390627845494E+00  1.148356297161E+01
 O   1.194948245756E+01  5.631276111426E+00  1.090904896221E+01
 H   1.140245766886E+01  6.004760410804E+00  1.016530098078E+01
