   64
V2Bi4O11                                
 H   8.996952255051E+00  1.517765037545E+01  2.436971152818E+01
 H   1.119032192885E+01  1.586669536377E+01  2.479086757599E+01
 O   1.034504788680E+01  1.629854467216E+01  2.448195067849E+01
 H   1.021439914506E+01  1.708794089284E+01  2.506184784008E+01
 O   1.922350886067E+01  1.635431364230E+01  2.515906743105E+01
 H   1.991491732419E+01  1.636657538955E+01  2.447998916161E+01
 H   1.964639407978E+01  1.661229117380E+01  2.599193214815E+01
 O   1.307836129307E+01  2.185335184091E+01  2.395202371776E+01
 H   1.269198998332E+01  2.259666232391E+01  2.443686125377E+01
 H   1.237152319558E+01  2.116520694821E+01  2.384991044988E+01
 O   1.597402509950E+01  1.875638672577E+01  2.280768419922E+01
 H   1.596147785654E+01  1.957859685868E+01  2.334561333144E+01
 H   1.502016876103E+01  1.854268881420E+01  2.270720155279E+01
 O   9.602346684371E+00  1.961186246911E+01  2.139027221639E+01
 H   9.995966778531E+00  1.995317094697E+01  2.057037534541E+01
 H   8.681943347269E+00  1.992081571159E+01  2.140222806851E+01
 O   1.326497897504E+01  1.801613789048E+01  2.335275783586E+01
 H   1.313345898248E+01  1.710067041555E+01  2.300877612274E+01
 H   1.365567024732E+01  1.796657777081E+01  2.426709118026E+01
 O   1.033013680658E+01  1.683354225112E+01  2.182296548713E+01
 H   1.040047490644E+01  1.677631014795E+01  2.281321160553E+01
 H   9.938413629295E+00  1.769856453021E+01  2.160114487015E+01
 O   8.663240876072E+00  1.216219776550E+01  2.554645847826E+01
 H   8.406305736768E+00  1.133516623500E+01  2.510669749817E+01
 H   8.314125393668E+00  1.211015494040E+01  2.645088918312E+01
 O   8.299253789322E+00  1.456775892931E+01  2.401457503839E+01
 H   8.825223818711E+00  1.441460568156E+01  2.256598197356E+01
 H   8.318627878089E+00  1.375319001360E+01  2.455674224746E+01
 O   1.659688374684E+01  1.688198488022E+01  2.458751596434E+01
 H   1.649796081065E+01  1.755548692962E+01  2.384567260441E+01
 H   1.755434621712E+01  1.674500696481E+01  2.478363039721E+01
 O   1.249904916121E+01  1.726452292003E+01  2.726260491983E+01
 H   1.329506345075E+01  1.772778830653E+01  2.691234592259E+01
 H   1.174015630846E+01  1.780491698248E+01  2.695958021236E+01
 O   1.534266446575E+01  2.073374396240E+01  2.477188284035E+01
 H   1.593235644632E+01  2.137724235239E+01  2.519139797147E+01
 H   1.451943169247E+01  2.122563946722E+01  2.447614259409E+01
 O   9.367869334310E+00  1.443512269204E+01  2.168740908637E+01
 H   1.031981350431E+01  1.392544690117E+01  2.193764755353E+01
 H   9.633674626448E+00  1.541115923911E+01  2.156729764124E+01
 O   1.499723726378E+01  1.483868455263E+01  2.433183878552E+01
 H   1.542265425056E+01  1.398278554147E+01  2.449119737221E+01
 H   1.569284726965E+01  1.556768444365E+01  2.443540097230E+01
 O   1.132700340404E+01  1.977256043524E+01  2.367239443660E+01
 H   1.201059171095E+01  1.905989059715E+01  2.346637589220E+01
 H   1.071448427582E+01  1.980893336271E+01  2.290729585615E+01
 O   1.340182694393E+01  1.541445322640E+01  2.230185706839E+01
 H   1.410479487027E+01  1.510662371388E+01  2.294222328413E+01
 H   1.381349091590E+01  1.549607708589E+01  2.142712172315E+01
 O   1.150468455966E+01  1.339935077778E+01  2.233683103172E+01
 H   1.219369466786E+01  1.410767917992E+01  2.228726603129E+01
 H   1.146470770288E+01  1.310444775469E+01  2.330034622245E+01
 O   1.250948590900E+01  1.517890333058E+01  2.562632255018E+01
 H   1.341800207617E+01  1.509026538361E+01  2.526124496825E+01
 H   1.253631714627E+01  1.587780534789E+01  2.635154004360E+01
 O   1.142967169362E+01  1.276994177744E+01  2.491019142800E+01
 H   1.175264252557E+01  1.357435430720E+01  2.538178208991E+01
 H   1.055346811020E+01  1.253830530218E+01  2.527190809622E+01
 O   1.456018724559E+01  1.829550816528E+01  2.575266824931E+01
 O   1.034817573618E+01  1.863497120041E+01  2.590854621655E+01
 H   9.626411375776E+00  1.909889195933E+01  2.635735802609E+01
 H   1.064708883874E+01  1.918658811432E+01  2.513282934806E+01
 H   1.483861247989E+01  1.923077347097E+01  2.558392681899E+01
 H   1.536969197965E+01  1.775274608065E+01  2.559160707160E+01
   64
V2Bi4O11                                 E -1.6055082215676E+03 DE-3.8E-10(  2)
 H   8.996952255051E+00  1.517765037545E+01  2.436971152818E+01
 H   1.119032192885E+01  1.586669536377E+01  2.479086757599E+01
 O   1.034504788680E+01  1.629854467216E+01  2.448195067849E+01
 H   1.021439914506E+01  1.708794089284E+01  2.506184784008E+01
 O   1.922350886067E+01  1.635431364230E+01  2.515906743105E+01
 H   1.991491732419E+01  1.636657538955E+01  2.447998916161E+01
 H   1.964639407978E+01  1.661229117380E+01  2.599193214815E+01
 O   1.307836129307E+01  2.185335184091E+01  2.395202371776E+01
 H   1.269198998332E+01  2.259666232391E+01  2.443686125377E+01
 H   1.237152319558E+01  2.116520694821E+01  2.384991044988E+01
 O   1.597402509950E+01  1.875638672577E+01  2.280768419922E+01
 H   1.596147785654E+01  1.957859685868E+01  2.334561333144E+01
 H   1.502016876103E+01  1.854268881420E+01  2.270720155279E+01
 O   9.602346684371E+00  1.961186246911E+01  2.139027221639E+01
 H   9.995966778531E+00  1.995317094697E+01  2.057037534541E+01
 H   8.681943347269E+00  1.992081571159E+01  2.140222806851E+01
 O   1.326497897504E+01  1.801613789048E+01  2.335275783586E+01
 H   1.313345898248E+01  1.710067041555E+01  2.300877612274E+01
 H   1.365567024732E+01  1.796657777081E+01  2.426709118026E+01
 O   1.033013680658E+01  1.683354225112E+01  2.182296548713E+01
 H   1.040047490644E+01  1.677631014795E+01  2.281321160553E+01
 H   9.938413629295E+00  1.769856453021E+01  2.160114487015E+01
 O   8.663240876072E+00  1.216219776550E+01  2.554645847826E+01
 H   8.406305736768E+00  1.133516623500E+01  2.510669749817E+01
 H   8.314125393668E+00  1.211015494040E+01  2.645088918312E+01
 O   8.299253789322E+00  1.456775892931E+01  2.401457503839E+01
 H   8.825223818711E+00  1.441460568156E+01  2.256598197356E+01
 H   8.318627878089E+00  1.375319001360E+01  2.455674224746E+01
 O   1.659688374684E+01  1.688198488022E+01  2.458751596434E+01
 H   1.649796081065E+01  1.755548692962E+01  2.384567260441E+01
 H   1.755434621712E+01  1.674500696481E+01  2.478363039721E+01
 O   1.249904916121E+01  1.726452292003E+01  2.726260491983E+01
 H   1.329506345075E+01  1.772778830653E+01  2.691234592259E+01
 H   1.174015630846E+01  1.780491698248E+01  2.695958021236E+01
 O   1.534266446575E+01  2.073374396240E+01  2.477188284035E+01
 H   1.593235644632E+01  2.137724235239E+01  2.519139797147E+01
 H   1.451943169247E+01  2.122563946722E+01  2.447614259409E+01
 O   9.367869334310E+00  1.443512269204E+01  2.168740908637E+01
 H   1.031981350431E+01  1.392544690117E+01  2.193764755353E+01
 H   9.633674626448E+00  1.541115923911E+01  2.156729764124E+01
 O   1.499723726378E+01  1.483868455263E+01  2.433183878552E+01
 H   1.542265425056E+01  1.398278554147E+01  2.449119737221E+01
 H   1.569284726965E+01  1.556768444365E+01  2.443540097230E+01
 O   1.132700340404E+01  1.977256043524E+01  2.367239443660E+01
 H   1.201059171095E+01  1.905989059715E+01  2.346637589220E+01
 H   1.071448427582E+01  1.980893336271E+01  2.290729585615E+01
 O   1.340182694393E+01  1.541445322640E+01  2.230185706839E+01
 H   1.410479487027E+01  1.510662371388E+01  2.294222328413E+01
 H   1.381349091590E+01  1.549607708589E+01  2.142712172315E+01
 O   1.150468455966E+01  1.339935077778E+01  2.233683103172E+01
 H   1.219369466786E+01  1.410767917992E+01  2.228726603129E+01
 H   1.146470770288E+01  1.310444775469E+01  2.330034622245E+01
 O   1.250948590900E+01  1.517890333058E+01  2.562632255018E+01
 H   1.341800207617E+01  1.509026538361E+01  2.526124496825E+01
 H   1.253631714627E+01  1.587780534789E+01  2.635154004360E+01
 O   1.142967169362E+01  1.276994177744E+01  2.491019142800E+01
 H   1.175264252557E+01  1.357435430720E+01  2.538178208991E+01
 H   1.055346811020E+01  1.253830530218E+01  2.527190809622E+01
 O   1.456018724559E+01  1.829550816528E+01  2.575266824931E+01
 O   1.034817573618E+01  1.863497120041E+01  2.590854621655E+01
 H   9.626411375776E+00  1.909889195933E+01  2.635735802609E+01
 H   1.064708883874E+01  1.918658811432E+01  2.513282934806E+01
 H   1.483861247989E+01  1.923077347097E+01  2.558392681899E+01
 H   1.536969197965E+01  1.775274608065E+01  2.559160707160E+01
