   32
V2Bi4O11                                
 O   9.052592649476E+00  8.915629337193E+00  1.129890392240E+01
 H   9.290217169596E+00  9.713730774443E+00  1.183766006916E+01
 H   1.032543328257E+01  8.402908955509E+00  1.041242512855E+01
 H   8.234375131253E+00  9.125549275428E+00  1.082479660259E+01
 O   8.928516900352E+00  5.970668334164E+00  6.648561578318E+00
 H   8.473986905675E+00  6.272926605464E+00  5.847286678572E+00
 H   8.860052984879E+00  5.003848473063E+00  6.659697753683E+00
 O   8.533903358427E+00  1.202152682914E+01  1.477226547822E+01
 H   8.147216222911E+00  1.290061016338E+01  1.489977658459E+01
 H   8.083928390928E+00  1.142185867276E+01  1.538602711131E+01
 O   1.106732869920E+01  7.382258482250E+00  7.558574119808E+00
 H   1.187212023215E+01  7.098461275799E+00  7.102082592604E+00
 H   1.031718834799E+01  6.837438269974E+00  7.213743663291E+00
 H   1.086616937012E+01  1.096661273600E+01  1.294024682169E+01
 O   9.947001029909E+00  1.114928696222E+01  1.263097298451E+01
 H   9.422057404440E+00  1.148285902651E+01  1.340183198810E+01
 O   1.123459173770E+01  8.189878965965E+00  1.003067683758E+01
 H   1.114501927666E+01  7.851818483617E+00  9.081137246851E+00
 H   1.170063723846E+01  5.781658180943E+00  1.214471736188E+01
 O   1.230675331347E+01  6.507481576844E+00  1.193497602922E+01
 H   1.190769247699E+01  7.015850025419E+00  1.118712389073E+01
 H   1.281607787251E+01  9.609908016317E+00  1.332302529575E+01
 H   1.327885082127E+01  1.116002235179E+01  1.327119425687E+01
 O   1.264856323728E+01  1.052981296900E+01  1.288878831066E+01
 H   1.262943800480E+01  1.042114237369E+01  1.129275553242E+01
 O   1.239825211993E+01  1.036281669992E+01  1.030200841514E+01
 H   1.057118807238E+01  1.299344321449E+01  9.957108838895E+00
 O   1.048945062579E+01  1.205249061499E+01  1.017080275696E+01
 H   1.015338140491E+01  1.195469550581E+01  1.110141925335E+01
 O   1.293091459596E+01  8.189660745955E+00  1.387092481752E+01
 H   1.375859098398E+01  7.917243908266E+00  1.429368983705E+01
 H   1.270449452309E+01  7.498759074635E+00  1.317738593676E+01
